1
    SWAT Aug 30 2016    VER 2016/Rev 659                                                                 0/ 0/   0      0: 0: 0

    General Input/Output section (file.cio):                                        
    11/10/2016 12:00:00 AM ARCGIS-SWAT interface AV                                 
                                                                                    


       RCH      GIS   MON     AREAkm2  FLOW_INcms FLOW_OUTcms     EVAPcms    TLOSScms  SED_INtons SED_OUTtons SEDCONCmg/L   ORGN_INkg  ORGN_OUTkg   ORGP_INkg  ORGP_OUTkg    NO3_INkg   NO3_OUTkg    NH4_INkg   NH4_OUTkg    NO2_INkg   NO2_OUTkg   MINP_INkg  MINP_OUTkg   CHLA_INkg  CHLA_OUTkg   CBOD_INkg  CBOD_OUTkg  DISOX_INkg DISOX_OUTkg SOLPST_INmgSOLPST_OUTmg SORPST_INmgSORPST_OUTmg  REACTPSTmg    VOLPSTmg  SETTLPSTmgRESUSP_PSTmgDIFFUSEPSTmgREACBEDPSTmg   BURYPSTmg   BED_PSTmg BACTP_OUTctBACTLP_OUTct  CMETAL#1kg  CMETAL#2kg  CMETAL#3kg     TOT Nkg     TOT Pkg NO3ConcMg/l    WTMPdegc
REACH    1        0  1992  0.3041E+04  0.1050E+02  0.1049E+02  0.7845E-02  0.0000E+00  0.4792E+01  0.4792E+01  0.1866E-01  0.9689E+02  0.9453E+02  0.6245E+03  0.5993E+03  0.2674E+07  0.2673E+07  0.8342E+03  0.8316E+03  0.2937E+03  0.2943E+03  0.1624E+05  0.1625E+05  0.2106E+01  0.1230E+01  0.0000E+00  0.0000E+00  0.3695E+07  0.3693E+07  0.0000E+00  0.0000E+00  0.0000E+00  0.0000E+00  0.0000E+00  0.0000E+00  0.0000E+00  0.0000E+00  0.0000E+00  0.0000E+00  0.0000E+00  0.0000E+00  0.0000E+00  0.0000E+00  0.0000E+00  0.0000E+00  0.0000E+00  0.2675E+07  0.1685E+05  0.0000E+00  0.0000E+00
REACH    2        0  1992  0.1005E+03  0.3714E+00  0.3710E+00  0.4633E-03  0.0000E+00  0.2325E+00  0.2325E+00  0.4989E-01  0.9984E+01  0.9862E+01  0.3440E+02  0.3370E+02  0.2091E+06  0.2090E+06  0.1576E+02  0.1753E+02  0.0000E+00  0.3937E+00  0.6831E+03  0.6824E+03  0.1558E+00  0.6802E-01  0.0000E+00  0.0000E+00  0.1351E+06  0.1349E+06  0.0000E+00  0.0000E+00  0.0000E+00  0.0000E+00  0.0000E+00  0.0000E+00  0.0000E+00  0.0000E+00  0.0000E+00  0.0000E+00  0.0000E+00  0.0000E+00  0.0000E+00  0.0000E+00  0.0000E+00  0.0000E+00  0.0000E+00  0.2091E+06  0.7161E+03  0.0000E+00  0.0000E+00
REACH    3        0  1992  0.9697E+02  0.3522E+00  0.3487E+00  0.3416E-02  0.0000E+00  0.2222E+00  0.2222E+00  0.5191E-01  0.8399E+01  0.8496E+01  0.4031E+02  0.3429E+02  0.2084E+06  0.2080E+06  0.0000E+00  0.1576E+02  0.0000E+00  0.0000E+00  0.6597E+03  0.6546E+03  0.4413E+01  0.4474E-01  0.0000E+00  0.0000E+00  0.1283E+06  0.1269E+06  0.0000E+00  0.0000E+00  0.0000E+00  0.0000E+00  0.0000E+00  0.0000E+00  0.0000E+00  0.0000E+00  0.0000E+00  0.0000E+00  0.0000E+00  0.0000E+00  0.0000E+00  0.0000E+00  0.0000E+00  0.0000E+00  0.0000E+00  0.2080E+06  0.6889E+03  0.0000E+00  0.0000E+00
REACH    4        0  1992  0.2930E+04  0.1008E+02  0.1006E+02  0.1945E-01  0.0000E+00  0.4369E+01  0.4369E+01  0.1747E-01  0.8173E+02  0.7841E+02  0.6346E+03  0.5895E+03  0.2465E+07  0.2463E+07  0.7905E+03  0.8166E+03  0.2988E+03  0.2933E+03  0.1545E+05  0.1546E+05  0.2189E+01  0.4152E+00  0.0000E+00  0.0000E+00  0.3543E+07  0.3536E+07  0.0000E+00  0.0000E+00  0.0000E+00  0.0000E+00  0.0000E+00  0.0000E+00  0.0000E+00  0.0000E+00  0.0000E+00  0.0000E+00  0.0000E+00  0.0000E+00  0.0000E+00  0.0000E+00  0.0000E+00  0.0000E+00  0.0000E+00  0.2464E+07  0.1605E+05  0.0000E+00  0.0000E+00
REACH    5        0  1992  0.5211E+02  0.8689E-01  0.8589E-01  0.9993E-03  0.0000E+00  0.1373E+00  0.1373E+00  0.6722E-01  0.7648E+01  0.7303E+01  0.1105E+01  0.1035E+01  0.1388E+05  0.1384E+05  0.8785E+01  0.1275E+02  0.0000E+00  0.7465E+00  0.1316E+03  0.1306E+03  0.1608E+00  0.0000E+00  0.0000E+00  0.0000E+00  0.3038E+05  0.3001E+05  0.0000E+00  0.0000E+00  0.0000E+00  0.0000E+00  0.0000E+00  0.0000E+00  0.0000E+00  0.0000E+00  0.0000E+00  0.0000E+00  0.0000E+00  0.0000E+00  0.0000E+00  0.0000E+00  0.0000E+00  0.0000E+00  0.0000E+00  0.1386E+05  0.1316E+03  0.0000E+00  0.0000E+00
REACH    6        0  1992  0.4962E+02  0.7445E-01  0.7259E-01  0.1861E-02  0.0000E+00  0.1180E+00  0.1180E+00  0.6473E-01  0.5762E+01  0.6072E+01  0.8974E+00  0.9339E+00  0.1386E+05  0.1375E+05  0.0000E+00  0.8785E+01  0.0000E+00  0.0000E+00  0.1151E+03  0.1130E+03  0.3059E+01  0.0000E+00  0.0000E+00  0.0000E+00  0.2612E+05  0.2523E+05  0.0000E+00  0.0000E+00  0.0000E+00  0.0000E+00  0.0000E+00  0.0000E+00  0.0000E+00  0.0000E+00  0.0000E+00  0.0000E+00  0.0000E+00  0.0000E+00  0.0000E+00  0.0000E+00  0.0000E+00  0.0000E+00  0.0000E+00  0.1377E+05  0.1139E+03  0.0000E+00  0.0000E+00
REACH    7        0  1992  0.3049E+03  0.9863E+00  0.9745E+00  0.1182E-01  0.0000E+00  0.1743E+00  0.1743E+00  0.1382E-01  0.5891E+01  0.4980E+01  0.9650E+02  0.7354E+02  0.3924E+06  0.3907E+06  0.2400E+02  0.6605E+02  0.0000E+00  0.6490E+01  0.1953E+04  0.1943E+04  0.2866E-01  0.3109E-03  0.0000E+00  0.0000E+00  0.3540E+06  0.3484E+06  0.0000E+00  0.0000E+00  0.0000E+00  0.0000E+00  0.0000E+00  0.0000E+00  0.0000E+00  0.0000E+00  0.0000E+00  0.0000E+00  0.0000E+00  0.0000E+00  0.0000E+00  0.0000E+00  0.0000E+00  0.0000E+00  0.0000E+00  0.3908E+06  0.2016E+04  0.0000E+00  0.0000E+00
REACH    8        0  1992  0.5001E+02  0.1628E+00  0.1616E+00  0.1209E-02  0.0000E+00  0.1743E+00  0.1743E+00  0.6402E-01  0.5730E+01  0.5886E+01  0.6475E+02  0.5912E+02  0.2650E+05  0.2643E+05  0.0000E+00  0.5838E+01  0.0000E+00  0.0000E+00  0.5407E+03  0.5383E+03  0.1975E+01  0.2866E-01  0.0000E+00  0.0000E+00  0.5721E+05  0.5757E+05  0.0000E+00  0.0000E+00  0.0000E+00  0.0000E+00  0.0000E+00  0.0000E+00  0.0000E+00  0.0000E+00  0.0000E+00  0.0000E+00  0.0000E+00  0.0000E+00  0.0000E+00  0.0000E+00  0.0000E+00  0.0000E+00  0.0000E+00  0.2645E+05  0.5975E+03  0.0000E+00  0.0000E+00
REACH    9        0  1992  0.2839E+04  0.9791E+01  0.9762E+01  0.2874E-01  0.0000E+00  0.3947E+01  0.3947E+01  0.1606E-01  0.7157E+02  0.6252E+02  0.8082E+03  0.6316E+03  0.2447E+07  0.2444E+07  0.8770E+03  0.7777E+03  0.2470E+03  0.2981E+03  0.1490E+05  0.1501E+05  0.1476E+01  0.6006E-01  0.0000E+00  0.0000E+00  0.3435E+07  0.3428E+07  0.0000E+00  0.0000E+00  0.0000E+00  0.0000E+00  0.0000E+00  0.0000E+00  0.0000E+00  0.0000E+00  0.0000E+00  0.0000E+00  0.0000E+00  0.0000E+00  0.0000E+00  0.0000E+00  0.0000E+00  0.0000E+00  0.0000E+00  0.2445E+07  0.1564E+05  0.0000E+00  0.0000E+00
REACH   10        0  1992  0.3157E+03  0.1039E+01  0.1034E+01  0.5065E-02  0.0000E+00  0.2168E+00  0.2168E+00  0.1643E-01  0.8071E+01  0.7642E+01  0.7390E+02  0.6600E+02  0.3934E+06  0.3927E+06  0.6605E+02  0.8045E+02  0.6490E+01  0.1247E+02  0.2025E+04  0.2020E+04  0.3736E+00  0.1436E-01  0.0000E+00  0.0000E+00  0.3717E+06  0.3698E+06  0.0000E+00  0.0000E+00  0.0000E+00  0.0000E+00  0.0000E+00  0.0000E+00  0.0000E+00  0.0000E+00  0.0000E+00  0.0000E+00  0.0000E+00  0.0000E+00  0.0000E+00  0.0000E+00  0.0000E+00  0.0000E+00  0.0000E+00  0.3928E+06  0.2086E+04  0.0000E+00  0.0000E+00
REACH   11        0  1992  0.8364E+02  0.2303E+00  0.2263E+00  0.4027E-02  0.0000E+00  0.5177E-05  0.0000E+00  0.0000E+00  0.2590E-02  0.5093E-03  0.4290E+01  0.3550E+01  0.1203E+06  0.1194E+06  0.0000E+00  0.1817E+02  0.0000E+00  0.0000E+00  0.3572E+03  0.3529E+03  0.1005E-11  0.0000E+00  0.0000E+00  0.0000E+00  0.8218E+05  0.8013E+05  0.0000E+00  0.0000E+00  0.0000E+00  0.0000E+00  0.0000E+00  0.0000E+00  0.0000E+00  0.0000E+00  0.0000E+00  0.0000E+00  0.0000E+00  0.0000E+00  0.0000E+00  0.0000E+00  0.0000E+00  0.0000E+00  0.0000E+00  0.1195E+06  0.3565E+03  0.0000E+00  0.0000E+00
REACH   12        0  1992  0.2473E+04  0.8478E+01  0.8437E+01  0.4034E-01  0.0000E+00  0.3536E+01  0.3536E+01  0.1579E-01  0.6166E+02  0.5630E+02  0.8645E+03  0.7080E+03  0.2048E+07  0.2045E+07  0.7767E+03  0.7965E+03  0.1646E+03  0.2346E+03  0.1237E+05  0.1245E+05  0.2372E+01  0.8196E-02  0.0000E+00  0.0000E+00  0.2967E+07  0.2953E+07  0.0000E+00  0.0000E+00  0.0000E+00  0.0000E+00  0.0000E+00  0.0000E+00  0.0000E+00  0.0000E+00  0.0000E+00  0.0000E+00  0.0000E+00  0.0000E+00  0.0000E+00  0.0000E+00  0.0000E+00  0.0000E+00  0.0000E+00  0.2046E+07  0.1316E+05  0.0000E+00  0.0000E+00
REACH   13        0  1992  0.9475E+03  0.2568E+01  0.2564E+01  0.3314E-02  0.0000E+00  0.1428E+01  0.1428E+01  0.2175E-01  0.2860E+02  0.2815E+02  0.2305E+03  0.2247E+03  0.1258E+07  0.1257E+07  0.2444E+03  0.2520E+03  0.5081E+02  0.5371E+02  0.2607E+04  0.2610E+04  0.2526E+00  0.1238E+00  0.0000E+00  0.0000E+00  0.8961E+06  0.8950E+06  0.0000E+00  0.0000E+00  0.0000E+00  0.0000E+00  0.0000E+00  0.0000E+00  0.0000E+00  0.0000E+00  0.0000E+00  0.0000E+00  0.0000E+00  0.0000E+00  0.0000E+00  0.0000E+00  0.0000E+00  0.0000E+00  0.0000E+00  0.1258E+07  0.2834E+04  0.0000E+00  0.0000E+00
REACH   14        0  1992  0.1446E+04  0.5502E+01  0.5496E+01  0.5677E-02  0.0000E+00  0.2108E+01  0.2108E+01  0.1384E-01  0.3320E+02  0.3351E+02  0.6309E+03  0.6106E+03  0.7811E+06  0.7807E+06  0.5199E+03  0.5247E+03  0.1015E+03  0.1109E+03  0.9207E+04  0.9216E+04  0.5938E+01  0.2248E+01  0.0000E+00  0.0000E+00  0.1924E+07  0.1922E+07  0.0000E+00  0.0000E+00  0.0000E+00  0.0000E+00  0.0000E+00  0.0000E+00  0.0000E+00  0.0000E+00  0.0000E+00  0.0000E+00  0.0000E+00  0.0000E+00  0.0000E+00  0.0000E+00  0.0000E+00  0.0000E+00  0.0000E+00  0.7814E+06  0.9826E+04  0.0000E+00  0.0000E+00
REACH   15        0  1992  0.9467E+03  0.2586E+01  0.2564E+01  0.2162E-01  0.0000E+00  0.1410E+01  0.1410E+01  0.2143E-01  0.2699E+02  0.2688E+02  0.2878E+03  0.2303E+03  0.1261E+07  0.1258E+07  0.1941E+03  0.2444E+03  0.1834E+02  0.5081E+02  0.2567E+04  0.2600E+04  0.5568E+01  0.5485E-02  0.0000E+00  0.0000E+00  0.8729E+06  0.8948E+06  0.0000E+00  0.0000E+00  0.0000E+00  0.0000E+00  0.0000E+00  0.0000E+00  0.0000E+00  0.0000E+00  0.0000E+00  0.0000E+00  0.0000E+00  0.0000E+00  0.0000E+00  0.0000E+00  0.0000E+00  0.0000E+00  0.0000E+00  0.1258E+07  0.2831E+04  0.0000E+00  0.0000E+00
REACH   16        0  1992  0.1114E+03  0.3446E+00  0.3377E+00  0.6870E-02  0.0000E+00  0.5901E-05  0.0000E+00  0.0000E+00  0.2936E-02  0.0000E+00  0.2856E+02  0.2242E+02  0.9528E+05  0.9464E+05  0.0000E+00  0.3127E+02  0.0000E+00  0.0000E+00  0.3253E+03  0.3262E+03  0.4772E-04  0.0000E+00  0.0000E+00  0.0000E+00  0.1209E+06  0.1177E+06  0.0000E+00  0.0000E+00  0.0000E+00  0.0000E+00  0.0000E+00  0.0000E+00  0.0000E+00  0.0000E+00  0.0000E+00  0.0000E+00  0.0000E+00  0.0000E+00  0.0000E+00  0.0000E+00  0.0000E+00  0.0000E+00  0.0000E+00  0.9468E+05  0.3486E+03  0.0000E+00  0.0000E+00
REACH   17        0  1992  0.6721E+03  0.1625E+01  0.1610E+01  0.1436E-01  0.0000E+00  0.9669E+00  0.9669E+00  0.2419E-01  0.1141E+02  0.1434E+02  0.1844E+03  0.1622E+03  0.9290E+06  0.9265E+06  0.1213E+03  0.1628E+03  0.0000E+00  0.1834E+02  0.1627E+04  0.1635E+04  0.2493E+02  0.4263E-01  0.0000E+00  0.0000E+00  0.5608E+06  0.5624E+06  0.0000E+00  0.0000E+00  0.0000E+00  0.0000E+00  0.0000E+00  0.0000E+00  0.0000E+00  0.0000E+00  0.0000E+00  0.0000E+00  0.0000E+00  0.0000E+00  0.0000E+00  0.0000E+00  0.0000E+00  0.0000E+00  0.0000E+00  0.9267E+06  0.1798E+04  0.0000E+00  0.0000E+00
REACH   18        0  1992  0.1970E+03  0.3334E+00  0.3226E+00  0.1080E-01  0.0000E+00  0.5031E-05  0.0000E+00  0.0000E+00  0.5598E-02  0.1258E-02  0.1204E+03  0.8848E+02  0.2647E+06  0.2624E+06  0.0000E+00  0.4231E+02  0.0000E+00  0.0000E+00  0.3812E+03  0.3944E+03  0.2554E-05  0.0000E+00  0.0000E+00  0.0000E+00  0.1154E+06  0.1130E+06  0.0000E+00  0.0000E+00  0.0000E+00  0.0000E+00  0.0000E+00  0.0000E+00  0.0000E+00  0.0000E+00  0.0000E+00  0.0000E+00  0.0000E+00  0.0000E+00  0.0000E+00  0.0000E+00  0.0000E+00  0.0000E+00  0.0000E+00  0.2624E+06  0.4829E+03  0.0000E+00  0.0000E+00
REACH   19        0  1992  0.7697E+02  0.2330E+00  0.2309E+00  0.2075E-02  0.0000E+00  0.4711E-05  0.0000E+00  0.0000E+00  0.2306E-02  0.3141E-03  0.6918E-02  0.3176E-02  0.1966E+05  0.1960E+05  0.0000E+00  0.8418E+01  0.0000E+00  0.0000E+00  0.1415E+03  0.1410E+03  0.2256E-13  0.0000E+00  0.0000E+00  0.0000E+00  0.8125E+05  0.8077E+05  0.0000E+00  0.0000E+00  0.0000E+00  0.0000E+00  0.0000E+00  0.0000E+00  0.0000E+00  0.0000E+00  0.0000E+00  0.0000E+00  0.0000E+00  0.0000E+00  0.0000E+00  0.0000E+00  0.0000E+00  0.0000E+00  0.0000E+00  0.1961E+05  0.1410E+03  0.0000E+00  0.0000E+00
REACH   20        0  1992  0.1285E+03  0.3225E+00  0.3124E+00  0.1015E-01  0.0000E+00  0.5295E+00  0.5295E+00  0.6277E-01  0.6617E+01  0.9512E+01  0.3879E+02  0.2969E+02  0.3960E+05  0.3898E+05  0.0000E+00  0.3742E+02  0.0000E+00  0.0000E+00  0.1138E+04  0.1102E+04  0.1356E+02  0.0000E+00  0.0000E+00  0.0000E+00  0.1009E+06  0.1081E+06  0.0000E+00  0.0000E+00  0.0000E+00  0.0000E+00  0.0000E+00  0.0000E+00  0.0000E+00  0.0000E+00  0.0000E+00  0.0000E+00  0.0000E+00  0.0000E+00  0.0000E+00  0.0000E+00  0.0000E+00  0.0000E+00  0.0000E+00  0.3903E+05  0.1132E+04  0.0000E+00  0.0000E+00
REACH   21        0  1992  0.3004E+03  0.8546E+00  0.8360E+00  0.1862E-01  0.0000E+00  0.4042E-05  0.0000E+00  0.0000E+00  0.5951E-02  0.0000E+00  0.1740E+02  0.1351E+02  0.1161E+06  0.1151E+06  0.0000E+00  0.7901E+02  0.0000E+00  0.0000E+00  0.7059E+03  0.7010E+03  0.1465E-11  0.0000E+00  0.0000E+00  0.0000E+00  0.2698E+06  0.2890E+06  0.0000E+00  0.0000E+00  0.0000E+00  0.0000E+00  0.0000E+00  0.0000E+00  0.0000E+00  0.0000E+00  0.0000E+00  0.0000E+00  0.0000E+00  0.0000E+00  0.0000E+00  0.0000E+00  0.0000E+00  0.0000E+00  0.0000E+00  0.1152E+06  0.7145E+03  0.0000E+00  0.0000E+00
REACH   22        0  1992  0.1411E+04  0.5327E+01  0.5288E+01  0.3867E-01  0.0000E+00  0.1744E+01  0.1744E+01  0.1170E-01  0.2788E+02  0.2505E+02  0.6317E+03  0.5301E+03  0.7788E+06  0.7758E+06  0.4330E+03  0.5199E+03  0.3813E+02  0.1015E+03  0.8798E+04  0.8827E+04  0.3474E-02  0.0000E+00  0.0000E+00  0.0000E+00  0.1860E+07  0.1848E+07  0.0000E+00  0.0000E+00  0.0000E+00  0.0000E+00  0.0000E+00  0.0000E+00  0.0000E+00  0.0000E+00  0.0000E+00  0.0000E+00  0.0000E+00  0.0000E+00  0.0000E+00  0.0000E+00  0.0000E+00  0.0000E+00  0.0000E+00  0.7764E+06  0.9357E+04  0.0000E+00  0.0000E+00
REACH   23        0  1992  0.5426E+03  0.1927E+01  0.1926E+01  0.1182E-02  0.0000E+00  0.1076E-05  0.0000E+00  0.0000E+00  0.1102E-04  0.0000E+00  0.2598E+03  0.2580E+03  0.2830E+06  0.2829E+06  0.1884E+03  0.1922E+03  0.0000E+00  0.1472E+01  0.2103E+04  0.2103E+04  0.3569E-16  0.0000E+00  0.0000E+00  0.0000E+00  0.6580E+06  0.6575E+06  0.0000E+00  0.0000E+00  0.0000E+00  0.0000E+00  0.0000E+00  0.0000E+00  0.0000E+00  0.0000E+00  0.0000E+00  0.0000E+00  0.0000E+00  0.0000E+00  0.0000E+00  0.0000E+00  0.0000E+00  0.0000E+00  0.0000E+00  0.2831E+06  0.2361E+04  0.0000E+00  0.0000E+00
REACH   24        0  1992  0.3078E+03  0.8278E+00  0.8224E+00  0.5465E-02  0.0000E+00  0.7565E+00  0.7564E+00  0.3901E-01  0.1580E+02  0.1574E+02  0.8184E+02  0.7529E+02  0.8339E+05  0.8312E+05  0.4584E+02  0.6388E+02  0.0000E+00  0.4098E+01  0.2425E+04  0.2411E+04  0.3230E+01  0.1250E-01  0.0000E+00  0.0000E+00  0.2828E+06  0.2860E+06  0.0000E+00  0.0000E+00  0.0000E+00  0.0000E+00  0.0000E+00  0.0000E+00  0.0000E+00  0.0000E+00  0.0000E+00  0.0000E+00  0.0000E+00  0.0000E+00  0.0000E+00  0.0000E+00  0.0000E+00  0.0000E+00  0.0000E+00  0.8321E+05  0.2486E+04  0.0000E+00  0.0000E+00
REACH   25        0  1992  0.5423E+03  0.1978E+01  0.1925E+01  0.5253E-01  0.0000E+00  0.3828E-05  0.0000E+00  0.0000E+00  0.1094E-01  0.0000E+00  0.3734E+03  0.2598E+03  0.2869E+06  0.2830E+06  0.0000E+00  0.1884E+03  0.0000E+00  0.0000E+00  0.2048E+04  0.2100E+04  0.5161E-11  0.0000E+00  0.0000E+00  0.0000E+00  0.6268E+06  0.6573E+06  0.0000E+00  0.0000E+00  0.0000E+00  0.0000E+00  0.0000E+00  0.0000E+00  0.0000E+00  0.0000E+00  0.0000E+00  0.0000E+00  0.0000E+00  0.0000E+00  0.0000E+00  0.0000E+00  0.0000E+00  0.0000E+00  0.0000E+00  0.2831E+06  0.2360E+04  0.0000E+00  0.0000E+00
REACH   26        0  1992  0.3126E+03  0.8495E+00  0.8487E+00  0.7790E-03  0.0000E+00  0.7565E+00  0.7564E+00  0.3821E-01  0.1574E+02  0.1544E+02  0.7529E+02  0.7285E+02  0.8368E+05  0.8365E+05  0.6388E+02  0.6502E+02  0.4098E+01  0.6142E+01  0.2443E+04  0.2443E+04  0.1250E-01  0.1064E-01  0.0000E+00  0.0000E+00  0.2957E+06  0.2953E+06  0.0000E+00  0.0000E+00  0.0000E+00  0.0000E+00  0.0000E+00  0.0000E+00  0.0000E+00  0.0000E+00  0.0000E+00  0.0000E+00  0.0000E+00  0.0000E+00  0.0000E+00  0.0000E+00  0.0000E+00  0.0000E+00  0.0000E+00  0.8373E+05  0.2516E+04  0.0000E+00  0.0000E+00
REACH   27        0  1992  0.7880E+03  0.2918E+01  0.2907E+01  0.1091E-01  0.0000E+00  0.1744E+01  0.1744E+01  0.2223E-01  0.2930E+02  0.2788E+02  0.2660E+03  0.2456E+03  0.4760E+06  0.4750E+06  0.2120E+03  0.2408E+03  0.2285E+02  0.3666E+02  0.5969E+04  0.5962E+04  0.1064E-01  0.3474E-02  0.0000E+00  0.0000E+00  0.1029E+07  0.1026E+07  0.0000E+00  0.0000E+00  0.0000E+00  0.0000E+00  0.0000E+00  0.0000E+00  0.0000E+00  0.0000E+00  0.0000E+00  0.0000E+00  0.0000E+00  0.0000E+00  0.0000E+00  0.0000E+00  0.0000E+00  0.0000E+00  0.0000E+00  0.4753E+06  0.6208E+04  0.0000E+00  0.0000E+00
REACH   28        0  1992  0.4560E+03  0.1981E+01  0.1957E+01  0.2401E-01  0.0000E+00  0.9873E+00  0.9873E+00  0.1832E-01  0.1596E+02  0.1387E+02  0.2434E+03  0.1931E+03  0.3913E+06  0.3883E+06  0.6675E+02  0.1470E+03  0.0000E+00  0.1671E+02  0.3393E+04  0.3392E+04  0.1119E-13  0.0000E+00  0.0000E+00  0.0000E+00  0.7003E+06  0.6934E+06  0.0000E+00  0.0000E+00  0.0000E+00  0.0000E+00  0.0000E+00  0.0000E+00  0.0000E+00  0.0000E+00  0.0000E+00  0.0000E+00  0.0000E+00  0.0000E+00  0.0000E+00  0.0000E+00  0.0000E+00  0.0000E+00  0.0000E+00  0.3885E+06  0.3585E+04  0.0000E+00  0.0000E+00
REACH   29        0  1992  0.3475E+03  0.1406E+01  0.1391E+01  0.1477E-01  0.0000E+00  0.9873E+00  0.9873E+00  0.2279E-01  0.1346E+02  0.1596E+02  0.1922E+03  0.1629E+03  0.3835E+06  0.3810E+06  0.0000E+00  0.6675E+02  0.0000E+00  0.0000E+00  0.2604E+04  0.2599E+04  0.1669E+02  0.0000E+00  0.0000E+00  0.0000E+00  0.4937E+06  0.4899E+06  0.0000E+00  0.0000E+00  0.0000E+00  0.0000E+00  0.0000E+00  0.0000E+00  0.0000E+00  0.0000E+00  0.0000E+00  0.0000E+00  0.0000E+00  0.0000E+00  0.0000E+00  0.0000E+00  0.0000E+00  0.0000E+00  0.0000E+00  0.3811E+06  0.2762E+04  0.0000E+00  0.0000E+00
REACH    1        0  1993  0.3041E+04  0.1506E+02  0.1506E+02  0.6389E-02  0.0000E+00  0.6924E+01  0.6924E+01  0.2006E-01  0.1393E+03  0.1359E+03  0.7026E+03  0.6783E+03  0.4248E+07  0.4247E+07  0.8659E+03  0.8668E+03  0.2727E+03  0.2755E+03  0.2172E+05  0.2173E+05  0.1768E+01  0.1004E+01  0.0000E+00  0.0000E+00  0.5429E+07  0.5427E+07  0.0000E+00  0.0000E+00  0.0000E+00  0.0000E+00  0.0000E+00  0.0000E+00  0.0000E+00  0.0000E+00  0.0000E+00  0.0000E+00  0.0000E+00  0.0000E+00  0.0000E+00  0.0000E+00  0.0000E+00  0.0000E+00  0.0000E+00  0.4248E+07  0.2241E+05  0.0000E+00  0.0000E+00
REACH    2        0  1993  0.1005E+03  0.6401E+00  0.6397E+00  0.3782E-03  0.0000E+00  0.3577E+00  0.3577E+00  0.4578E-01  0.1507E+02  0.1491E+02  0.3691E+02  0.3637E+02  0.2951E+06  0.2950E+06  0.1535E+02  0.1719E+02  0.0000E+00  0.2649E+00  0.1114E+04  0.1114E+04  0.1556E+00  0.8507E-01  0.0000E+00  0.0000E+00  0.2316E+06  0.2314E+06  0.0000E+00  0.0000E+00  0.0000E+00  0.0000E+00  0.0000E+00  0.0000E+00  0.0000E+00  0.0000E+00  0.0000E+00  0.0000E+00  0.0000E+00  0.0000E+00  0.0000E+00  0.0000E+00  0.0000E+00  0.0000E+00  0.0000E+00  0.2950E+06  0.1150E+04  0.0000E+00  0.0000E+00
REACH    3        0  1993  0.9697E+02  0.6113E+00  0.6085E+00  0.2796E-02  0.0000E+00  0.3431E+00  0.3431E+00  0.4789E-01  0.1245E+02  0.1305E+02  0.4094E+02  0.3675E+02  0.2940E+06  0.2934E+06  0.0000E+00  0.1535E+02  0.0000E+00  0.0000E+00  0.1078E+04  0.1075E+04  0.3841E+01  0.6337E-01  0.0000E+00  0.0000E+00  0.2224E+06  0.2203E+06  0.0000E+00  0.0000E+00  0.0000E+00  0.0000E+00  0.0000E+00  0.0000E+00  0.0000E+00  0.0000E+00  0.0000E+00  0.0000E+00  0.0000E+00  0.0000E+00  0.0000E+00  0.0000E+00  0.0000E+00  0.0000E+00  0.0000E+00  0.2935E+06  0.1111E+04  0.0000E+00  0.0000E+00
REACH    4        0  1993  0.2930E+04  0.1433E+02  0.1431E+02  0.1586E-01  0.0000E+00  0.6298E+01  0.6298E+01  0.1892E-01  0.1175E+03  0.1127E+03  0.7075E+03  0.6643E+03  0.3953E+07  0.3950E+07  0.8192E+03  0.8487E+03  0.2722E+03  0.2724E+03  0.2043E+05  0.2045E+05  0.2184E+01  0.3215E+00  0.0000E+00  0.0000E+00  0.5165E+07  0.5159E+07  0.0000E+00  0.0000E+00  0.0000E+00  0.0000E+00  0.0000E+00  0.0000E+00  0.0000E+00  0.0000E+00  0.0000E+00  0.0000E+00  0.0000E+00  0.0000E+00  0.0000E+00  0.0000E+00  0.0000E+00  0.0000E+00  0.0000E+00  0.3951E+07  0.2111E+05  0.0000E+00  0.0000E+00
REACH    5        0  1993  0.5211E+02  0.1626E+00  0.1617E+00  0.8152E-03  0.0000E+00  0.2129E+00  0.2129E+00  0.6561E-01  0.1028E+02  0.9874E+01  0.1616E+01  0.1528E+01  0.2040E+05  0.2034E+05  0.8397E+01  0.1236E+02  0.0000E+00  0.5667E+00  0.2801E+03  0.2793E+03  0.2526E+00  0.7447E-01  0.0000E+00  0.0000E+00  0.5865E+05  0.5830E+05  0.0000E+00  0.0000E+00  0.0000E+00  0.0000E+00  0.0000E+00  0.0000E+00  0.0000E+00  0.0000E+00  0.0000E+00  0.0000E+00  0.0000E+00  0.0000E+00  0.0000E+00  0.0000E+00  0.0000E+00  0.0000E+00  0.0000E+00  0.2037E+05  0.2808E+03  0.0000E+00  0.0000E+00
REACH    6        0  1993  0.4962E+02  0.1421E+00  0.1405E+00  0.1519E-02  0.0000E+00  0.1844E+00  0.1844E+00  0.6355E-01  0.8039E+01  0.8231E+01  0.1362E+01  0.1375E+01  0.2032E+05  0.2020E+05  0.0000E+00  0.8397E+01  0.0000E+00  0.0000E+00  0.2526E+03  0.2509E+03  0.2644E+01  0.1016E+00  0.0000E+00  0.0000E+00  0.5168E+05  0.5063E+05  0.0000E+00  0.0000E+00  0.0000E+00  0.0000E+00  0.0000E+00  0.0000E+00  0.0000E+00  0.0000E+00  0.0000E+00  0.0000E+00  0.0000E+00  0.0000E+00  0.0000E+00  0.0000E+00  0.0000E+00  0.0000E+00  0.0000E+00  0.2022E+05  0.2523E+03  0.0000E+00  0.0000E+00
REACH    7        0  1993  0.3049E+03  0.2017E+01  0.2008E+01  0.9671E-02  0.0000E+00  0.2555E+00  0.2555E+00  0.1025E-01  0.8183E+01  0.7202E+01  0.9869E+02  0.8038E+02  0.5001E+06  0.4985E+06  0.2289E+02  0.6615E+02  0.0000E+00  0.4775E+01  0.3551E+04  0.3546E+04  0.1255E+00  0.1688E-02  0.0000E+00  0.0000E+00  0.7402E+06  0.7330E+06  0.0000E+00  0.0000E+00  0.0000E+00  0.0000E+00  0.0000E+00  0.0000E+00  0.0000E+00  0.0000E+00  0.0000E+00  0.0000E+00  0.0000E+00  0.0000E+00  0.0000E+00  0.0000E+00  0.0000E+00  0.0000E+00  0.0000E+00  0.4986E+06  0.3627E+04  0.0000E+00  0.0000E+00
REACH    8        0  1993  0.5001E+02  0.3585E+00  0.3575E+00  0.9902E-03  0.0000E+00  0.2555E+00  0.2555E+00  0.4809E-01  0.7938E+01  0.8179E+01  0.6507E+02  0.6125E+02  0.5461E+05  0.5449E+05  0.0000E+00  0.5555E+01  0.0000E+00  0.0000E+00  0.8495E+03  0.8481E+03  0.2498E+01  0.5853E-01  0.0000E+00  0.0000E+00  0.1308E+06  0.1305E+06  0.0000E+00  0.0000E+00  0.0000E+00  0.0000E+00  0.0000E+00  0.0000E+00  0.0000E+00  0.0000E+00  0.0000E+00  0.0000E+00  0.0000E+00  0.0000E+00  0.0000E+00  0.0000E+00  0.0000E+00  0.0000E+00  0.0000E+00  0.5451E+05  0.9094E+03  0.0000E+00  0.0000E+00
REACH    9        0  1993  0.2839E+04  0.1380E+02  0.1378E+02  0.2343E-01  0.0000E+00  0.5666E+01  0.5666E+01  0.1757E-01  0.1060E+03  0.9213E+02  0.8702E+03  0.7032E+03  0.3919E+07  0.3915E+07  0.8752E+03  0.8068E+03  0.2136E+03  0.2716E+03  0.1953E+05  0.1964E+05  0.1414E+01  0.7874E-01  0.0000E+00  0.0000E+00  0.4971E+07  0.4965E+07  0.0000E+00  0.0000E+00  0.0000E+00  0.0000E+00  0.0000E+00  0.0000E+00  0.0000E+00  0.0000E+00  0.0000E+00  0.0000E+00  0.0000E+00  0.0000E+00  0.0000E+00  0.0000E+00  0.0000E+00  0.0000E+00  0.0000E+00  0.3916E+07  0.2034E+05  0.0000E+00  0.0000E+00
REACH   10        0  1993  0.3157E+03  0.2107E+01  0.2103E+01  0.4135E-02  0.0000E+00  0.3182E+00  0.3182E+00  0.1217E-01  0.1122E+02  0.1073E+02  0.8090E+02  0.7462E+02  0.5017E+06  0.5011E+06  0.6615E+02  0.8207E+02  0.4775E+01  0.9539E+01  0.3676E+04  0.3673E+04  0.3805E+00  0.3549E-01  0.0000E+00  0.0000E+00  0.7693E+06  0.7675E+06  0.0000E+00  0.0000E+00  0.0000E+00  0.0000E+00  0.0000E+00  0.0000E+00  0.0000E+00  0.0000E+00  0.0000E+00  0.0000E+00  0.0000E+00  0.0000E+00  0.0000E+00  0.0000E+00  0.0000E+00  0.0000E+00  0.0000E+00  0.5012E+06  0.3747E+04  0.0000E+00  0.0000E+00
REACH   11        0  1993  0.8364E+02  0.4748E+00  0.4715E+00  0.3293E-02  0.0000E+00  0.5163E-05  0.0000E+00  0.0000E+00  0.2583E-02  0.2279E-03  0.4278E+01  0.3700E+01  0.2023E+06  0.2014E+06  0.0000E+00  0.1734E+02  0.0000E+00  0.0000E+00  0.7307E+03  0.7275E+03  0.6333E-04  0.0000E+00  0.0000E+00  0.0000E+00  0.1758E+06  0.1731E+06  0.0000E+00  0.0000E+00  0.0000E+00  0.0000E+00  0.0000E+00  0.0000E+00  0.0000E+00  0.0000E+00  0.0000E+00  0.0000E+00  0.0000E+00  0.0000E+00  0.0000E+00  0.0000E+00  0.0000E+00  0.0000E+00  0.0000E+00  0.2014E+06  0.7312E+03  0.0000E+00  0.0000E+00
REACH   12        0  1993  0.2473E+04  0.1120E+02  0.1116E+02  0.3285E-01  0.0000E+00  0.5062E+01  0.5062E+01  0.1841E-01  0.9514E+02  0.8533E+02  0.9065E+03  0.7609E+03  0.3406E+07  0.3400E+07  0.7537E+03  0.7931E+03  0.1380E+03  0.2040E+03  0.1507E+05  0.1515E+05  0.2161E+01  0.2000E-01  0.0000E+00  0.0000E+00  0.4025E+07  0.4012E+07  0.0000E+00  0.0000E+00  0.0000E+00  0.0000E+00  0.0000E+00  0.0000E+00  0.0000E+00  0.0000E+00  0.0000E+00  0.0000E+00  0.0000E+00  0.0000E+00  0.0000E+00  0.0000E+00  0.0000E+00  0.0000E+00  0.0000E+00  0.3401E+07  0.1591E+05  0.0000E+00  0.0000E+00
REACH   13        0  1993  0.9475E+03  0.3252E+01  0.3249E+01  0.2977E-02  0.0000E+00  0.2005E+01  0.2005E+01  0.2411E-01  0.4871E+02  0.4795E+02  0.2451E+03  0.2396E+03  0.1937E+07  0.1937E+07  0.2382E+03  0.2461E+03  0.4385E+02  0.4657E+02  0.3380E+04  0.3382E+04  0.5889E+00  0.2126E+00  0.0000E+00  0.0000E+00  0.1172E+07  0.1171E+07  0.0000E+00  0.0000E+00  0.0000E+00  0.0000E+00  0.0000E+00  0.0000E+00  0.0000E+00  0.0000E+00  0.0000E+00  0.0000E+00  0.0000E+00  0.0000E+00  0.0000E+00  0.0000E+00  0.0000E+00  0.0000E+00  0.0000E+00  0.1937E+07  0.3622E+04  0.0000E+00  0.0000E+00
REACH   14        0  1993  0.1446E+04  0.7296E+01  0.7291E+01  0.5105E-02  0.0000E+00  0.3057E+01  0.3057E+01  0.1714E-01  0.4746E+02  0.4719E+02  0.6566E+03  0.6376E+03  0.1444E+07  0.1443E+07  0.5004E+03  0.5076E+03  0.8277E+02  0.9148E+02  0.1084E+05  0.1085E+05  0.5166E+01  0.1949E+01  0.0000E+00  0.0000E+00  0.2616E+07  0.2614E+07  0.0000E+00  0.0000E+00  0.0000E+00  0.0000E+00  0.0000E+00  0.0000E+00  0.0000E+00  0.0000E+00  0.0000E+00  0.0000E+00  0.0000E+00  0.0000E+00  0.0000E+00  0.0000E+00  0.0000E+00  0.0000E+00  0.0000E+00  0.1443E+07  0.1149E+05  0.0000E+00  0.0000E+00
REACH   15        0  1993  0.9467E+03  0.3266E+01  0.3246E+01  0.1945E-01  0.0000E+00  0.1980E+01  0.1980E+01  0.2381E-01  0.3961E+02  0.4650E+02  0.2965E+03  0.2449E+03  0.1942E+07  0.1937E+07  0.1854E+03  0.2382E+03  0.1569E+02  0.4385E+02  0.3339E+04  0.3369E+04  0.1583E+02  0.2839E-01  0.0000E+00  0.0000E+00  0.1147E+07  0.1170E+07  0.0000E+00  0.0000E+00  0.0000E+00  0.0000E+00  0.0000E+00  0.0000E+00  0.0000E+00  0.0000E+00  0.0000E+00  0.0000E+00  0.0000E+00  0.0000E+00  0.0000E+00  0.0000E+00  0.0000E+00  0.0000E+00  0.0000E+00  0.1937E+07  0.3614E+04  0.0000E+00  0.0000E+00
REACH   16        0  1993  0.1114E+03  0.5955E+00  0.5899E+00  0.5607E-02  0.0000E+00  0.5885E-05  0.0000E+00  0.0000E+00  0.2928E-02  0.0000E+00  0.2848E+02  0.2368E+02  0.1740E+06  0.1731E+06  0.0000E+00  0.2998E+02  0.0000E+00  0.0000E+00  0.6465E+03  0.6475E+03  0.1337E+01  0.5810E-01  0.0000E+00  0.0000E+00  0.2166E+06  0.2129E+06  0.0000E+00  0.0000E+00  0.0000E+00  0.0000E+00  0.0000E+00  0.0000E+00  0.0000E+00  0.0000E+00  0.0000E+00  0.0000E+00  0.0000E+00  0.0000E+00  0.0000E+00  0.0000E+00  0.0000E+00  0.0000E+00  0.0000E+00  0.1731E+06  0.6712E+03  0.0000E+00  0.0000E+00
REACH   17        0  1993  0.6721E+03  0.1883E+01  0.1871E+01  0.1175E-01  0.0000E+00  0.1345E+01  0.1345E+01  0.2663E-01  0.1525E+02  0.2279E+02  0.1874E+03  0.1688E+03  0.1437E+07  0.1433E+07  0.1146E+03  0.1554E+03  0.0000E+00  0.1569E+02  0.1896E+04  0.1903E+04  0.4447E+02  0.6958E-01  0.0000E+00  0.0000E+00  0.6705E+06  0.6743E+06  0.0000E+00  0.0000E+00  0.0000E+00  0.0000E+00  0.0000E+00  0.0000E+00  0.0000E+00  0.0000E+00  0.0000E+00  0.0000E+00  0.0000E+00  0.0000E+00  0.0000E+00  0.0000E+00  0.0000E+00  0.0000E+00  0.0000E+00  0.1434E+07  0.2072E+04  0.0000E+00  0.0000E+00
REACH   18        0  1993  0.1970E+03  0.4049E+00  0.3961E+00  0.8821E-02  0.0000E+00  0.5017E-05  0.0000E+00  0.0000E+00  0.5583E-02  0.5105E-03  0.1201E+03  0.8978E+02  0.4627E+06  0.4587E+06  0.0000E+00  0.4015E+02  0.0000E+00  0.0000E+00  0.4451E+03  0.4585E+03  0.2752E+01  0.0000E+00  0.0000E+00  0.0000E+00  0.1440E+06  0.1421E+06  0.0000E+00  0.0000E+00  0.0000E+00  0.0000E+00  0.0000E+00  0.0000E+00  0.0000E+00  0.0000E+00  0.0000E+00  0.0000E+00  0.0000E+00  0.0000E+00  0.0000E+00  0.0000E+00  0.0000E+00  0.0000E+00  0.0000E+00  0.4588E+06  0.5483E+03  0.0000E+00  0.0000E+00
REACH   19        0  1993  0.7697E+02  0.4001E+00  0.3984E+00  0.1723E-02  0.0000E+00  0.4698E-05  0.0000E+00  0.0000E+00  0.2300E-02  0.0000E+00  0.6899E-02  0.2302E-02  0.4424E+05  0.4410E+05  0.0000E+00  0.7938E+01  0.0000E+00  0.0000E+00  0.2413E+03  0.2411E+03  0.1716E-12  0.0000E+00  0.0000E+00  0.0000E+00  0.1446E+06  0.1444E+06  0.0000E+00  0.0000E+00  0.0000E+00  0.0000E+00  0.0000E+00  0.0000E+00  0.0000E+00  0.0000E+00  0.0000E+00  0.0000E+00  0.0000E+00  0.0000E+00  0.0000E+00  0.0000E+00  0.0000E+00  0.0000E+00  0.0000E+00  0.4411E+05  0.2411E+03  0.0000E+00  0.0000E+00
REACH   20        0  1993  0.1285E+03  0.6422E+00  0.6338E+00  0.8464E-02  0.0000E+00  0.8534E+00  0.8534E+00  0.6846E-01  0.1071E+02  0.1463E+02  0.4020E+02  0.3354E+02  0.1757E+06  0.1746E+06  0.0000E+00  0.3680E+02  0.0000E+00  0.0000E+00  0.1344E+04  0.1310E+04  0.1737E+02  0.0000E+00  0.0000E+00  0.0000E+00  0.2145E+06  0.2298E+06  0.0000E+00  0.0000E+00  0.0000E+00  0.0000E+00  0.0000E+00  0.0000E+00  0.0000E+00  0.0000E+00  0.0000E+00  0.0000E+00  0.0000E+00  0.0000E+00  0.0000E+00  0.0000E+00  0.0000E+00  0.0000E+00  0.0000E+00  0.1746E+06  0.1343E+04  0.0000E+00  0.0000E+00
REACH   21        0  1993  0.3004E+03  0.9307E+00  0.9140E+00  0.1671E-01  0.0000E+00  0.4031E-05  0.0000E+00  0.0000E+00  0.5935E-02  0.0000E+00  0.1736E+02  0.1386E+02  0.1154E+06  0.1144E+06  0.0000E+00  0.7442E+02  0.0000E+00  0.0000E+00  0.7609E+03  0.7570E+03  0.2036E+01  0.0000E+00  0.0000E+00  0.0000E+00  0.3043E+06  0.3272E+06  0.0000E+00  0.0000E+00  0.0000E+00  0.0000E+00  0.0000E+00  0.0000E+00  0.0000E+00  0.0000E+00  0.0000E+00  0.0000E+00  0.0000E+00  0.0000E+00  0.0000E+00  0.0000E+00  0.0000E+00  0.0000E+00  0.0000E+00  0.1144E+06  0.7709E+03  0.0000E+00  0.0000E+00
REACH   22        0  1993  0.1411E+04  0.7007E+01  0.6972E+01  0.3478E-01  0.0000E+00  0.2550E+01  0.2550E+01  0.1504E-01  0.4164E+02  0.3714E+02  0.6498E+03  0.5553E+03  0.1439E+07  0.1433E+07  0.4058E+03  0.5004E+03  0.3117E+02  0.8277E+02  0.1028E+05  0.1031E+05  0.1477E-01  0.3421E-03  0.0000E+00  0.0000E+00  0.2512E+07  0.2500E+07  0.0000E+00  0.0000E+00  0.0000E+00  0.0000E+00  0.0000E+00  0.0000E+00  0.0000E+00  0.0000E+00  0.0000E+00  0.0000E+00  0.0000E+00  0.0000E+00  0.0000E+00  0.0000E+00  0.0000E+00  0.0000E+00  0.0000E+00  0.1433E+07  0.1086E+05  0.0000E+00  0.0000E+00
REACH   23        0  1993  0.5426E+03  0.1980E+01  0.1979E+01  0.1063E-02  0.0000E+00  0.1073E-05  0.0000E+00  0.0000E+00  0.1099E-04  0.0000E+00  0.2620E+03  0.2602E+03  0.5875E+06  0.5873E+06  0.1646E+03  0.1683E+03  0.0000E+00  0.1213E+01  0.2104E+04  0.2105E+04  0.6453E-17  0.0000E+00  0.0000E+00  0.0000E+00  0.7040E+06  0.7035E+06  0.0000E+00  0.0000E+00  0.0000E+00  0.0000E+00  0.0000E+00  0.0000E+00  0.0000E+00  0.0000E+00  0.0000E+00  0.0000E+00  0.0000E+00  0.0000E+00  0.0000E+00  0.0000E+00  0.0000E+00  0.0000E+00  0.0000E+00  0.5874E+06  0.2365E+04  0.0000E+00  0.0000E+00
REACH   24        0  1993  0.3078E+03  0.1584E+01  0.1579E+01  0.4548E-02  0.0000E+00  0.1269E+01  0.1269E+01  0.4146E-01  0.2543E+02  0.2618E+02  0.8663E+02  0.8152E+02  0.3071E+06  0.3066E+06  0.4474E+02  0.6282E+02  0.0000E+00  0.3171E+01  0.2901E+04  0.2890E+04  0.7720E+01  0.4532E-01  0.0000E+00  0.0000E+00  0.5650E+06  0.5722E+06  0.0000E+00  0.0000E+00  0.0000E+00  0.0000E+00  0.0000E+00  0.0000E+00  0.0000E+00  0.0000E+00  0.0000E+00  0.0000E+00  0.0000E+00  0.0000E+00  0.0000E+00  0.0000E+00  0.0000E+00  0.0000E+00  0.0000E+00  0.3067E+06  0.2971E+04  0.0000E+00  0.0000E+00
REACH   25        0  1993  0.5423E+03  0.2024E+01  0.1977E+01  0.4707E-01  0.0000E+00  0.3818E-05  0.0000E+00  0.0000E+00  0.1091E-01  0.0000E+00  0.3723E+03  0.2620E+03  0.5967E+06  0.5874E+06  0.0000E+00  0.1646E+03  0.0000E+00  0.0000E+00  0.2052E+04  0.2101E+04  0.2832E-11  0.0000E+00  0.0000E+00  0.0000E+00  0.6670E+06  0.7029E+06  0.0000E+00  0.0000E+00  0.0000E+00  0.0000E+00  0.0000E+00  0.0000E+00  0.0000E+00  0.0000E+00  0.0000E+00  0.0000E+00  0.0000E+00  0.0000E+00  0.0000E+00  0.0000E+00  0.0000E+00  0.0000E+00  0.0000E+00  0.5876E+06  0.2363E+04  0.0000E+00  0.0000E+00
REACH   26        0  1993  0.3126E+03  0.1624E+01  0.1623E+01  0.7024E-03  0.0000E+00  0.1269E+01  0.1269E+01  0.3991E-01  0.2618E+02  0.2569E+02  0.8152E+02  0.7943E+02  0.3077E+06  0.3076E+06  0.6282E+02  0.6447E+02  0.3171E+01  0.4815E+01  0.2943E+04  0.2943E+04  0.4532E-01  0.3912E-01  0.0000E+00  0.0000E+00  0.5883E+06  0.5880E+06  0.0000E+00  0.0000E+00  0.0000E+00  0.0000E+00  0.0000E+00  0.0000E+00  0.0000E+00  0.0000E+00  0.0000E+00  0.0000E+00  0.0000E+00  0.0000E+00  0.0000E+00  0.0000E+00  0.0000E+00  0.0000E+00  0.0000E+00  0.3077E+06  0.3022E+04  0.0000E+00  0.0000E+00
REACH   27        0  1993  0.7880E+03  0.4286E+01  0.4276E+01  0.9827E-02  0.0000E+00  0.2550E+01  0.2550E+01  0.2539E-01  0.4381E+02  0.4164E+02  0.2802E+03  0.2619E+03  0.8125E+06  0.8107E+06  0.2069E+03  0.2375E+03  0.1806E+02  0.2996E+02  0.7132E+04  0.7128E+04  0.3912E-01  0.1477E-01  0.0000E+00  0.0000E+00  0.1544E+07  0.1540E+07  0.0000E+00  0.0000E+00  0.0000E+00  0.0000E+00  0.0000E+00  0.0000E+00  0.0000E+00  0.0000E+00  0.0000E+00  0.0000E+00  0.0000E+00  0.0000E+00  0.0000E+00  0.0000E+00  0.0000E+00  0.0000E+00  0.0000E+00  0.8110E+06  0.7390E+04  0.0000E+00  0.0000E+00
REACH   28        0  1993  0.4560E+03  0.2496E+01  0.2476E+01  0.1990E-01  0.0000E+00  0.1280E+01  0.1280E+01  0.2030E-01  0.2095E+02  0.1811E+02  0.2454E+03  0.2008E+03  0.5006E+06  0.4962E+06  0.6306E+02  0.1424E+03  0.0000E+00  0.1324E+02  0.3965E+04  0.3968E+04  0.4978E-05  0.0000E+00  0.0000E+00  0.0000E+00  0.8950E+06  0.8891E+06  0.0000E+00  0.0000E+00  0.0000E+00  0.0000E+00  0.0000E+00  0.0000E+00  0.0000E+00  0.0000E+00  0.0000E+00  0.0000E+00  0.0000E+00  0.0000E+00  0.0000E+00  0.0000E+00  0.0000E+00  0.0000E+00  0.0000E+00  0.4964E+06  0.4169E+04  0.0000E+00  0.0000E+00
REACH   29        0  1993  0.3475E+03  0.1526E+01  0.1512E+01  0.1328E-01  0.0000E+00  0.1280E+01  0.1280E+01  0.2921E-01  0.1588E+02  0.2095E+02  0.1929E+03  0.1651E+03  0.4831E+06  0.4791E+06  0.0000E+00  0.6306E+02  0.0000E+00  0.0000E+00  0.2704E+04  0.2700E+04  0.1803E+02  0.0000E+00  0.0000E+00  0.0000E+00  0.5464E+06  0.5437E+06  0.0000E+00  0.0000E+00  0.0000E+00  0.0000E+00  0.0000E+00  0.0000E+00  0.0000E+00  0.0000E+00  0.0000E+00  0.0000E+00  0.0000E+00  0.0000E+00  0.0000E+00  0.0000E+00  0.0000E+00  0.0000E+00  0.0000E+00  0.4792E+06  0.2865E+04  0.0000E+00  0.0000E+00
REACH    1        0  1994  0.3041E+04  0.2455E+02  0.2454E+02  0.7308E-02  0.0000E+00  0.6831E+01  0.6831E+01  0.1104E-01  0.1376E+03  0.1350E+03  0.8096E+03  0.7860E+03  0.3719E+07  0.3719E+07  0.1008E+04  0.1010E+04  0.3069E+03  0.3118E+03  0.3059E+05  0.3061E+05  0.1225E+01  0.9668E+00  0.0000E+00  0.0000E+00  0.8725E+07  0.8723E+07  0.0000E+00  0.0000E+00  0.0000E+00  0.0000E+00  0.0000E+00  0.0000E+00  0.0000E+00  0.0000E+00  0.0000E+00  0.0000E+00  0.0000E+00  0.0000E+00  0.0000E+00  0.0000E+00  0.0000E+00  0.0000E+00  0.0000E+00  0.3720E+07  0.3139E+05  0.0000E+00  0.0000E+00
REACH    2        0  1994  0.1005E+03  0.8372E+00  0.8367E+00  0.4324E-03  0.0000E+00  0.3241E+00  0.3241E+00  0.1865E-01  0.1431E+02  0.1422E+02  0.3811E+02  0.3771E+02  0.1979E+06  0.1979E+06  0.1649E+02  0.1852E+02  0.0000E+00  0.2219E+00  0.1408E+04  0.1408E+04  0.1002E+00  0.7025E-01  0.0000E+00  0.0000E+00  0.2994E+06  0.2991E+06  0.0000E+00  0.0000E+00  0.0000E+00  0.0000E+00  0.0000E+00  0.0000E+00  0.0000E+00  0.0000E+00  0.0000E+00  0.0000E+00  0.0000E+00  0.0000E+00  0.0000E+00  0.0000E+00  0.0000E+00  0.0000E+00  0.0000E+00  0.1979E+06  0.1446E+04  0.0000E+00  0.0000E+00
REACH    3        0  1994  0.9697E+02  0.8030E+00  0.7998E+00  0.3192E-02  0.0000E+00  0.3104E+00  0.3104E+00  0.1866E-01  0.1210E+02  0.1230E+02  0.4079E+02  0.3796E+02  0.1970E+06  0.1968E+06  0.0000E+00  0.1649E+02  0.0000E+00  0.0000E+00  0.1364E+04  0.1362E+04  0.2120E+01  0.5158E-01  0.0000E+00  0.0000E+00  0.2889E+06  0.2858E+06  0.0000E+00  0.0000E+00  0.0000E+00  0.0000E+00  0.0000E+00  0.0000E+00  0.0000E+00  0.0000E+00  0.0000E+00  0.0000E+00  0.0000E+00  0.0000E+00  0.0000E+00  0.0000E+00  0.0000E+00  0.0000E+00  0.0000E+00  0.1968E+06  0.1400E+04  0.0000E+00  0.0000E+00
REACH    4        0  1994  0.2930E+04  0.2362E+02  0.2360E+02  0.1814E-01  0.0000E+00  0.6255E+01  0.6255E+01  0.1045E-01  0.1155E+03  0.1117E+03  0.8117E+03  0.7701E+03  0.3521E+07  0.3519E+07  0.9560E+03  0.9899E+03  0.3019E+03  0.3067E+03  0.2901E+05  0.2903E+05  0.1083E+01  0.5110E+00  0.0000E+00  0.0000E+00  0.8393E+07  0.8386E+07  0.0000E+00  0.0000E+00  0.0000E+00  0.0000E+00  0.0000E+00  0.0000E+00  0.0000E+00  0.0000E+00  0.0000E+00  0.0000E+00  0.0000E+00  0.0000E+00  0.0000E+00  0.0000E+00  0.0000E+00  0.0000E+00  0.0000E+00  0.3521E+07  0.2980E+05  0.0000E+00  0.0000E+00
REACH    5        0  1994  0.5211E+02  0.2317E+00  0.2308E+00  0.9349E-03  0.0000E+00  0.2098E+00  0.2098E+00  0.3480E-01  0.1124E+02  0.1092E+02  0.1684E+01  0.1614E+01  0.1794E+05  0.1789E+05  0.9038E+01  0.1344E+02  0.0000E+00  0.4950E+00  0.3499E+03  0.3490E+03  0.6818E-01  0.1849E-02  0.0000E+00  0.0000E+00  0.8216E+05  0.8172E+05  0.0000E+00  0.0000E+00  0.0000E+00  0.0000E+00  0.0000E+00  0.0000E+00  0.0000E+00  0.0000E+00  0.0000E+00  0.0000E+00  0.0000E+00  0.0000E+00  0.0000E+00  0.0000E+00  0.0000E+00  0.0000E+00  0.0000E+00  0.1791E+05  0.3506E+03  0.0000E+00  0.0000E+00
REACH    6        0  1994  0.4962E+02  0.1986E+00  0.1968E+00  0.1740E-02  0.0000E+00  0.1825E+00  0.1825E+00  0.3580E-01  0.8945E+01  0.9022E+01  0.1447E+01  0.1432E+01  0.1781E+05  0.1770E+05  0.0000E+00  0.9038E+01  0.0000E+00  0.0000E+00  0.3069E+03  0.3050E+03  0.1920E+01  0.0000E+00  0.0000E+00  0.0000E+00  0.7095E+05  0.6960E+05  0.0000E+00  0.0000E+00  0.0000E+00  0.0000E+00  0.0000E+00  0.0000E+00  0.0000E+00  0.0000E+00  0.0000E+00  0.0000E+00  0.0000E+00  0.0000E+00  0.0000E+00  0.0000E+00  0.0000E+00  0.0000E+00  0.0000E+00  0.1772E+05  0.3065E+03  0.0000E+00  0.0000E+00
REACH    7        0  1994  0.3049E+03  0.3000E+01  0.2989E+01  0.1106E-01  0.0000E+00  0.2509E+00  0.2509E+00  0.5229E-02  0.8332E+01  0.7501E+01  0.9965E+02  0.8418E+02  0.5014E+06  0.5000E+06  0.2476E+02  0.7288E+02  0.0000E+00  0.5026E+01  0.5084E+04  0.5080E+04  0.8263E-01  0.2172E-01  0.0000E+00  0.0000E+00  0.1094E+07  0.1084E+07  0.0000E+00  0.0000E+00  0.0000E+00  0.0000E+00  0.0000E+00  0.0000E+00  0.0000E+00  0.0000E+00  0.0000E+00  0.0000E+00  0.0000E+00  0.0000E+00  0.0000E+00  0.0000E+00  0.0000E+00  0.0000E+00  0.0000E+00  0.5001E+06  0.5165E+04  0.0000E+00  0.0000E+00
REACH    8        0  1994  0.5001E+02  0.5049E+00  0.5037E+00  0.1135E-02  0.0000E+00  0.2509E+00  0.2509E+00  0.2599E-01  0.8071E+01  0.8327E+01  0.6510E+02  0.6207E+02  0.4009E+05  0.4001E+05  0.0000E+00  0.5902E+01  0.0000E+00  0.0000E+00  0.1076E+04  0.1075E+04  0.1986E+01  0.8260E-01  0.0000E+00  0.0000E+00  0.1829E+06  0.1820E+06  0.0000E+00  0.0000E+00  0.0000E+00  0.0000E+00  0.0000E+00  0.0000E+00  0.0000E+00  0.0000E+00  0.0000E+00  0.0000E+00  0.0000E+00  0.0000E+00  0.0000E+00  0.0000E+00  0.0000E+00  0.0000E+00  0.0000E+00  0.4003E+05  0.1137E+04  0.0000E+00  0.0000E+00
REACH    9        0  1994  0.2839E+04  0.2291E+02  0.2289E+02  0.2690E-01  0.0000E+00  0.5644E+01  0.5644E+01  0.9748E-02  0.9772E+02  0.8786E+02  0.9619E+03  0.8072E+03  0.3495E+07  0.3493E+07  0.1008E+04  0.9426E+03  0.2286E+03  0.3014E+03  0.2791E+05  0.2802E+05  0.8562E+00  0.2640E+00  0.0000E+00  0.0000E+00  0.8138E+07  0.8130E+07  0.0000E+00  0.0000E+00  0.0000E+00  0.0000E+00  0.0000E+00  0.0000E+00  0.0000E+00  0.0000E+00  0.0000E+00  0.0000E+00  0.0000E+00  0.0000E+00  0.0000E+00  0.0000E+00  0.0000E+00  0.0000E+00  0.0000E+00  0.3494E+07  0.2882E+05  0.0000E+00  0.0000E+00
REACH   10        0  1994  0.3157E+03  0.3137E+01  0.3133E+01  0.4738E-02  0.0000E+00  0.3110E+00  0.3110E+00  0.5970E-02  0.1184E+02  0.1142E+02  0.8472E+02  0.7938E+02  0.5048E+06  0.5043E+06  0.7288E+02  0.9054E+02  0.5026E+01  0.1002E+02  0.5267E+04  0.5265E+04  0.1875E+00  0.4023E-01  0.0000E+00  0.0000E+00  0.1138E+07  0.1136E+07  0.0000E+00  0.0000E+00  0.0000E+00  0.0000E+00  0.0000E+00  0.0000E+00  0.0000E+00  0.0000E+00  0.0000E+00  0.0000E+00  0.0000E+00  0.0000E+00  0.0000E+00  0.0000E+00  0.0000E+00  0.0000E+00  0.0000E+00  0.5044E+06  0.5344E+04  0.0000E+00  0.0000E+00
REACH   11        0  1994  0.8364E+02  0.7379E+00  0.7342E+00  0.3761E-02  0.0000E+00  0.5163E-05  0.0000E+00  0.0000E+00  0.2583E-02  0.0000E+00  0.4278E+01  0.3847E+01  0.1172E+06  0.1167E+06  0.0000E+00  0.1886E+02  0.0000E+00  0.0000E+00  0.1143E+04  0.1139E+04  0.6493E-12  0.0000E+00  0.0000E+00  0.0000E+00  0.2723E+06  0.2684E+06  0.0000E+00  0.0000E+00  0.0000E+00  0.0000E+00  0.0000E+00  0.0000E+00  0.0000E+00  0.0000E+00  0.0000E+00  0.0000E+00  0.0000E+00  0.0000E+00  0.0000E+00  0.0000E+00  0.0000E+00  0.0000E+00  0.0000E+00  0.1167E+06  0.1143E+04  0.0000E+00  0.0000E+00
REACH   12        0  1994  0.2473E+04  0.1915E+02  0.1911E+02  0.3762E-01  0.0000E+00  0.5059E+01  0.5059E+01  0.1003E-01  0.8229E+02  0.7560E+02  0.9758E+03  0.8478E+03  0.2980E+07  0.2977E+07  0.8689E+03  0.9178E+03  0.1416E+03  0.2186E+03  0.2170E+05  0.2178E+05  0.1137E+01  0.2542E+00  0.0000E+00  0.0000E+00  0.6780E+07  0.6765E+07  0.0000E+00  0.0000E+00  0.0000E+00  0.0000E+00  0.0000E+00  0.0000E+00  0.0000E+00  0.0000E+00  0.0000E+00  0.0000E+00  0.0000E+00  0.0000E+00  0.0000E+00  0.0000E+00  0.0000E+00  0.0000E+00  0.0000E+00  0.2978E+07  0.2263E+05  0.0000E+00  0.0000E+00
REACH   13        0  1994  0.9475E+03  0.5863E+01  0.5860E+01  0.3047E-02  0.0000E+00  0.2071E+01  0.2071E+01  0.1339E-01  0.3815E+02  0.3774E+02  0.2664E+03  0.2617E+03  0.1637E+07  0.1637E+07  0.2683E+03  0.2775E+03  0.4178E+02  0.4503E+02  0.5614E+04  0.5616E+04  0.4047E+00  0.3356E+00  0.0000E+00  0.0000E+00  0.2072E+07  0.2071E+07  0.0000E+00  0.0000E+00  0.0000E+00  0.0000E+00  0.0000E+00  0.0000E+00  0.0000E+00  0.0000E+00  0.0000E+00  0.0000E+00  0.0000E+00  0.0000E+00  0.0000E+00  0.0000E+00  0.0000E+00  0.0000E+00  0.0000E+00  0.1637E+07  0.5878E+04  0.0000E+00  0.0000E+00
REACH   14        0  1994  0.1446E+04  0.1247E+02  0.1247E+02  0.5224E-02  0.0000E+00  0.2989E+01  0.2989E+01  0.9175E-02  0.4519E+02  0.4455E+02  0.7013E+03  0.6849E+03  0.1323E+07  0.1322E+07  0.5832E+03  0.5915E+03  0.8668E+02  0.9658E+02  0.1503E+05  0.1504E+05  0.1040E+01  0.8015E+00  0.0000E+00  0.0000E+00  0.4410E+07  0.4409E+07  0.0000E+00  0.0000E+00  0.0000E+00  0.0000E+00  0.0000E+00  0.0000E+00  0.0000E+00  0.0000E+00  0.0000E+00  0.0000E+00  0.0000E+00  0.0000E+00  0.0000E+00  0.0000E+00  0.0000E+00  0.0000E+00  0.0000E+00  0.1323E+07  0.1572E+05  0.0000E+00  0.0000E+00
REACH   15        0  1994  0.9467E+03  0.5875E+01  0.5856E+01  0.1991E-01  0.0000E+00  0.2048E+01  0.2048E+01  0.1324E-01  0.3741E+02  0.3587E+02  0.3105E+03  0.2662E+03  0.1639E+07  0.1637E+07  0.2068E+03  0.2683E+03  0.1430E+02  0.4178E+02  0.5574E+04  0.5601E+04  0.4086E+01  0.2832E+00  0.0000E+00  0.0000E+00  0.2047E+07  0.2069E+07  0.0000E+00  0.0000E+00  0.0000E+00  0.0000E+00  0.0000E+00  0.0000E+00  0.0000E+00  0.0000E+00  0.0000E+00  0.0000E+00  0.0000E+00  0.0000E+00  0.0000E+00  0.0000E+00  0.0000E+00  0.0000E+00  0.0000E+00  0.1637E+07  0.5867E+04  0.0000E+00  0.0000E+00
REACH   16        0  1994  0.1114E+03  0.8738E+00  0.8673E+00  0.6435E-02  0.0000E+00  0.5885E-05  0.0000E+00  0.0000E+00  0.2928E-02  0.0000E+00  0.2848E+02  0.2467E+02  0.1319E+06  0.1315E+06  0.0000E+00  0.3243E+02  0.0000E+00  0.0000E+00  0.8168E+03  0.8169E+03  0.1564E+00  0.0000E+00  0.0000E+00  0.0000E+00  0.3102E+06  0.3050E+06  0.0000E+00  0.0000E+00  0.0000E+00  0.0000E+00  0.0000E+00  0.0000E+00  0.0000E+00  0.0000E+00  0.0000E+00  0.0000E+00  0.0000E+00  0.0000E+00  0.0000E+00  0.0000E+00  0.0000E+00  0.0000E+00  0.0000E+00  0.1315E+06  0.8416E+03  0.0000E+00  0.0000E+00
REACH   17        0  1994  0.6721E+03  0.3842E+01  0.3828E+01  0.1354E-01  0.0000E+00  0.1451E+01  0.1451E+01  0.1406E-01  0.1809E+02  0.2005E+02  0.1993E+03  0.1820E+03  0.1271E+07  0.1270E+07  0.1273E+03  0.1744E+03  0.0000E+00  0.1430E+02  0.3632E+04  0.3639E+04  0.1001E+02  0.6835E+00  0.0000E+00  0.0000E+00  0.1345E+07  0.1354E+07  0.0000E+00  0.0000E+00  0.0000E+00  0.0000E+00  0.0000E+00  0.0000E+00  0.0000E+00  0.0000E+00  0.0000E+00  0.0000E+00  0.0000E+00  0.0000E+00  0.0000E+00  0.0000E+00  0.0000E+00  0.0000E+00  0.0000E+00  0.1270E+07  0.3821E+04  0.0000E+00  0.0000E+00
REACH   18        0  1994  0.1970E+03  0.9763E+00  0.9662E+00  0.1019E-01  0.0000E+00  0.5017E-05  0.0000E+00  0.0000E+00  0.5583E-02  0.0000E+00  0.1201E+03  0.1000E+03  0.3559E+06  0.3546E+06  0.0000E+00  0.4627E+02  0.0000E+00  0.0000E+00  0.9757E+03  0.9852E+03  0.9611E+00  0.0000E+00  0.0000E+00  0.0000E+00  0.3439E+06  0.3410E+06  0.0000E+00  0.0000E+00  0.0000E+00  0.0000E+00  0.0000E+00  0.0000E+00  0.0000E+00  0.0000E+00  0.0000E+00  0.0000E+00  0.0000E+00  0.0000E+00  0.0000E+00  0.0000E+00  0.0000E+00  0.0000E+00  0.0000E+00  0.3546E+06  0.1085E+04  0.0000E+00  0.0000E+00
REACH   19        0  1994  0.7697E+02  0.8399E+00  0.8380E+00  0.1908E-02  0.0000E+00  0.4698E-05  0.0000E+00  0.0000E+00  0.2300E-02  0.0000E+00  0.6899E-02  0.0000E+00  0.4236E+05  0.4230E+05  0.0000E+00  0.8581E+01  0.0000E+00  0.0000E+00  0.5156E+03  0.5152E+03  0.9403E-15  0.0000E+00  0.0000E+00  0.0000E+00  0.2996E+06  0.2993E+06  0.0000E+00  0.0000E+00  0.0000E+00  0.0000E+00  0.0000E+00  0.0000E+00  0.0000E+00  0.0000E+00  0.0000E+00  0.0000E+00  0.0000E+00  0.0000E+00  0.0000E+00  0.0000E+00  0.0000E+00  0.0000E+00  0.0000E+00  0.4231E+05  0.5152E+03  0.0000E+00  0.0000E+00
REACH   20        0  1994  0.1285E+03  0.1232E+01  0.1222E+01  0.9317E-02  0.0000E+00  0.8101E+00  0.8100E+00  0.2637E-01  0.1115E+02  0.1159E+02  0.4024E+02  0.3444E+02  0.1011E+06  0.1007E+06  0.0000E+00  0.4163E+02  0.0000E+00  0.0000E+00  0.1692E+04  0.1684E+04  0.3216E+01  0.0000E+00  0.0000E+00  0.0000E+00  0.4079E+06  0.4353E+06  0.0000E+00  0.0000E+00  0.0000E+00  0.0000E+00  0.0000E+00  0.0000E+00  0.0000E+00  0.0000E+00  0.0000E+00  0.0000E+00  0.0000E+00  0.0000E+00  0.0000E+00  0.0000E+00  0.0000E+00  0.0000E+00  0.0000E+00  0.1008E+06  0.1719E+04  0.0000E+00  0.0000E+00
REACH   21        0  1994  0.3004E+03  0.1860E+01  0.1843E+01  0.1724E-01  0.0000E+00  0.4031E-05  0.0000E+00  0.0000E+00  0.5935E-02  0.0000E+00  0.1736E+02  0.1461E+02  0.1267E+06  0.1263E+06  0.0000E+00  0.8099E+02  0.0000E+00  0.0000E+00  0.1557E+04  0.1552E+04  0.1310E-11  0.0000E+00  0.0000E+00  0.0000E+00  0.6025E+06  0.6494E+06  0.0000E+00  0.0000E+00  0.0000E+00  0.0000E+00  0.0000E+00  0.0000E+00  0.0000E+00  0.0000E+00  0.0000E+00  0.0000E+00  0.0000E+00  0.0000E+00  0.0000E+00  0.0000E+00  0.0000E+00  0.0000E+00  0.0000E+00  0.1263E+06  0.1567E+04  0.0000E+00  0.0000E+00
REACH   22        0  1994  0.1411E+04  0.1214E+02  0.1211E+02  0.3554E-01  0.0000E+00  0.2587E+01  0.2587E+01  0.8183E-02  0.3848E+02  0.3545E+02  0.6787E+03  0.6004E+03  0.1320E+07  0.1317E+07  0.4800E+03  0.5832E+03  0.3005E+02  0.8668E+02  0.1442E+05  0.1446E+05  0.2224E+00  0.3027E-01  0.0000E+00  0.0000E+00  0.4291E+07  0.4279E+07  0.0000E+00  0.0000E+00  0.0000E+00  0.0000E+00  0.0000E+00  0.0000E+00  0.0000E+00  0.0000E+00  0.0000E+00  0.0000E+00  0.0000E+00  0.0000E+00  0.0000E+00  0.0000E+00  0.0000E+00  0.0000E+00  0.0000E+00  0.1318E+07  0.1506E+05  0.0000E+00  0.0000E+00
REACH   23        0  1994  0.5426E+03  0.3758E+01  0.3757E+01  0.1086E-02  0.0000E+00  0.1073E-05  0.0000E+00  0.0000E+00  0.1099E-04  0.0000E+00  0.2708E+03  0.2694E+03  0.5873E+06  0.5871E+06  0.2148E+03  0.2187E+03  0.0000E+00  0.1389E+01  0.3657E+04  0.3658E+04  0.1668E-17  0.0000E+00  0.0000E+00  0.0000E+00  0.1315E+07  0.1314E+07  0.0000E+00  0.0000E+00  0.0000E+00  0.0000E+00  0.0000E+00  0.0000E+00  0.0000E+00  0.0000E+00  0.0000E+00  0.0000E+00  0.0000E+00  0.0000E+00  0.0000E+00  0.0000E+00  0.0000E+00  0.0000E+00  0.0000E+00  0.5874E+06  0.3927E+04  0.0000E+00  0.0000E+00
REACH   24        0  1994  0.3078E+03  0.3166E+01  0.3161E+01  0.4997E-02  0.0000E+00  0.1231E+01  0.1231E+01  0.1625E-01  0.2350E+02  0.2350E+02  0.8771E+02  0.8411E+02  0.2286E+06  0.2284E+06  0.5021E+02  0.7022E+02  0.0000E+00  0.2731E+01  0.3882E+04  0.3879E+04  0.2821E+01  0.4374E+00  0.0000E+00  0.0000E+00  0.1114E+07  0.1128E+07  0.0000E+00  0.0000E+00  0.0000E+00  0.0000E+00  0.0000E+00  0.0000E+00  0.0000E+00  0.0000E+00  0.0000E+00  0.0000E+00  0.0000E+00  0.0000E+00  0.0000E+00  0.0000E+00  0.0000E+00  0.0000E+00  0.0000E+00  0.2285E+06  0.3963E+04  0.0000E+00  0.0000E+00
REACH   25        0  1994  0.5423E+03  0.3802E+01  0.3753E+01  0.4856E-01  0.0000E+00  0.3818E-05  0.0000E+00  0.0000E+00  0.1091E-01  0.0000E+00  0.3723E+03  0.2708E+03  0.5918E+06  0.5872E+06  0.0000E+00  0.2148E+03  0.0000E+00  0.0000E+00  0.3596E+04  0.3652E+04  0.2066E-11  0.0000E+00  0.0000E+00  0.0000E+00  0.1237E+07  0.1313E+07  0.0000E+00  0.0000E+00  0.0000E+00  0.0000E+00  0.0000E+00  0.0000E+00  0.0000E+00  0.0000E+00  0.0000E+00  0.0000E+00  0.0000E+00  0.0000E+00  0.0000E+00  0.0000E+00  0.0000E+00  0.0000E+00  0.0000E+00  0.5874E+06  0.3923E+04  0.0000E+00  0.0000E+00
REACH   26        0  1994  0.3126E+03  0.3230E+01  0.3230E+01  0.7310E-03  0.0000E+00  0.1231E+01  0.1231E+01  0.1589E-01  0.2350E+02  0.2323E+02  0.8411E+02  0.8257E+02  0.2292E+06  0.2292E+06  0.7022E+02  0.7227E+02  0.2731E+01  0.4244E+01  0.3963E+04  0.3963E+04  0.4374E+00  0.4023E+00  0.0000E+00  0.0000E+00  0.1153E+07  0.1152E+07  0.0000E+00  0.0000E+00  0.0000E+00  0.0000E+00  0.0000E+00  0.0000E+00  0.0000E+00  0.0000E+00  0.0000E+00  0.0000E+00  0.0000E+00  0.0000E+00  0.0000E+00  0.0000E+00  0.0000E+00  0.0000E+00  0.0000E+00  0.2293E+06  0.4046E+04  0.0000E+00  0.0000E+00
REACH   27        0  1994  0.7880E+03  0.7561E+01  0.7551E+01  0.1006E-01  0.0000E+00  0.2587E+01  0.2587E+01  0.1307E-01  0.3983E+02  0.3848E+02  0.2965E+03  0.2816E+03  0.7127E+06  0.7122E+06  0.2262E+03  0.2613E+03  0.1701E+02  0.2866E+02  0.9609E+04  0.9611E+04  0.4023E+00  0.2224E+00  0.0000E+00  0.0000E+00  0.2678E+07  0.2675E+07  0.0000E+00  0.0000E+00  0.0000E+00  0.0000E+00  0.0000E+00  0.0000E+00  0.0000E+00  0.0000E+00  0.0000E+00  0.0000E+00  0.0000E+00  0.0000E+00  0.0000E+00  0.0000E+00  0.0000E+00  0.0000E+00  0.0000E+00  0.7125E+06  0.9893E+04  0.0000E+00  0.0000E+00
REACH   28        0  1994  0.4560E+03  0.4064E+01  0.4042E+01  0.2183E-01  0.0000E+00  0.1356E+01  0.1356E+01  0.1210E-01  0.1845E+02  0.1660E+02  0.2509E+03  0.2140E+03  0.4801E+06  0.4785E+06  0.6752E+02  0.1540E+03  0.0000E+00  0.1277E+02  0.5290E+04  0.5298E+04  0.2982E-15  0.0000E+00  0.0000E+00  0.0000E+00  0.1429E+07  0.1423E+07  0.0000E+00  0.0000E+00  0.0000E+00  0.0000E+00  0.0000E+00  0.0000E+00  0.0000E+00  0.0000E+00  0.0000E+00  0.0000E+00  0.0000E+00  0.0000E+00  0.0000E+00  0.0000E+00  0.0000E+00  0.0000E+00  0.0000E+00  0.4787E+06  0.5512E+04  0.0000E+00  0.0000E+00
REACH   29        0  1994  0.3475E+03  0.2526E+01  0.2513E+01  0.1360E-01  0.0000E+00  0.1356E+01  0.1356E+01  0.1751E-01  0.1724E+02  0.1845E+02  0.1932E+03  0.1706E+03  0.4656E+06  0.4641E+06  0.0000E+00  0.6752E+02  0.0000E+00  0.0000E+00  0.3318E+04  0.3322E+04  0.1005E+02  0.0000E+00  0.0000E+00  0.0000E+00  0.8811E+06  0.8779E+06  0.0000E+00  0.0000E+00  0.0000E+00  0.0000E+00  0.0000E+00  0.0000E+00  0.0000E+00  0.0000E+00  0.0000E+00  0.0000E+00  0.0000E+00  0.0000E+00  0.0000E+00  0.0000E+00  0.0000E+00  0.0000E+00  0.0000E+00  0.4642E+06  0.3493E+04  0.0000E+00  0.0000E+00
REACH    1        0  1995  0.3041E+04  0.1705E+02  0.1704E+02  0.7401E-02  0.0000E+00  0.5550E+01  0.5550E+01  0.1311E-01  0.1055E+03  0.1032E+03  0.7372E+03  0.7126E+03  0.1579E+07  0.1579E+07  0.9213E+03  0.9205E+03  0.3026E+03  0.3049E+03  0.2228E+05  0.2229E+05  0.1547E+01  0.1193E+01  0.0000E+00  0.0000E+00  0.6103E+07  0.6100E+07  0.0000E+00  0.0000E+00  0.0000E+00  0.0000E+00  0.0000E+00  0.0000E+00  0.0000E+00  0.0000E+00  0.0000E+00  0.0000E+00  0.0000E+00  0.0000E+00  0.0000E+00  0.0000E+00  0.0000E+00  0.0000E+00  0.0000E+00  0.1580E+07  0.2300E+05  0.0000E+00  0.0000E+00
REACH    2        0  1995  0.1005E+03  0.4050E+00  0.4045E+00  0.4363E-03  0.0000E+00  0.2465E+00  0.2465E+00  0.4333E-01  0.1032E+02  0.1021E+02  0.3492E+02  0.3428E+02  0.9698E+05  0.9696E+05  0.1577E+02  0.1754E+02  0.0000E+00  0.3724E+00  0.7393E+03  0.7389E+03  0.1006E+00  0.5023E-01  0.0000E+00  0.0000E+00  0.1489E+06  0.1486E+06  0.0000E+00  0.0000E+00  0.0000E+00  0.0000E+00  0.0000E+00  0.0000E+00  0.0000E+00  0.0000E+00  0.0000E+00  0.0000E+00  0.0000E+00  0.0000E+00  0.0000E+00  0.0000E+00  0.0000E+00  0.0000E+00  0.0000E+00  0.9699E+05  0.7732E+03  0.0000E+00  0.0000E+00
REACH    3        0  1995  0.9697E+02  0.3860E+00  0.3828E+00  0.3218E-02  0.0000E+00  0.2359E+00  0.2359E+00  0.4440E-01  0.8893E+01  0.8786E+01  0.4023E+02  0.3481E+02  0.9640E+05  0.9625E+05  0.0000E+00  0.1577E+02  0.0000E+00  0.0000E+00  0.7148E+03  0.7114E+03  0.2136E+01  0.2975E-01  0.0000E+00  0.0000E+00  0.1421E+06  0.1407E+06  0.0000E+00  0.0000E+00  0.0000E+00  0.0000E+00  0.0000E+00  0.0000E+00  0.0000E+00  0.0000E+00  0.0000E+00  0.0000E+00  0.0000E+00  0.0000E+00  0.0000E+00  0.0000E+00  0.0000E+00  0.0000E+00  0.0000E+00  0.9627E+05  0.7462E+03  0.0000E+00  0.0000E+00
REACH    4        0  1995  0.2930E+04  0.1659E+02  0.1657E+02  0.1833E-01  0.0000E+00  0.5109E+01  0.5109E+01  0.1230E-01  0.8962E+02  0.8637E+02  0.7450E+03  0.7015E+03  0.1482E+07  0.1481E+07  0.8750E+03  0.9038E+03  0.3026E+03  0.3022E+03  0.2142E+05  0.2144E+05  0.1426E+01  0.5754E+00  0.0000E+00  0.0000E+00  0.5935E+07  0.5928E+07  0.0000E+00  0.0000E+00  0.0000E+00  0.0000E+00  0.0000E+00  0.0000E+00  0.0000E+00  0.0000E+00  0.0000E+00  0.0000E+00  0.0000E+00  0.0000E+00  0.0000E+00  0.0000E+00  0.0000E+00  0.0000E+00  0.0000E+00  0.1482E+07  0.2214E+05  0.0000E+00  0.0000E+00
REACH    5        0  1995  0.5211E+02  0.1389E+00  0.1380E+00  0.9413E-03  0.0000E+00  0.1571E+00  0.1571E+00  0.4815E-01  0.8154E+01  0.7855E+01  0.1196E+01  0.1133E+01  0.1047E+05  0.1044E+05  0.8719E+01  0.1273E+02  0.0000E+00  0.6501E+00  0.2133E+03  0.2123E+03  0.9530E-01  0.9041E-03  0.0000E+00  0.0000E+00  0.5005E+05  0.4967E+05  0.0000E+00  0.0000E+00  0.0000E+00  0.0000E+00  0.0000E+00  0.0000E+00  0.0000E+00  0.0000E+00  0.0000E+00  0.0000E+00  0.0000E+00  0.0000E+00  0.0000E+00  0.0000E+00  0.0000E+00  0.0000E+00  0.0000E+00  0.1046E+05  0.2135E+03  0.0000E+00  0.0000E+00
REACH    6        0  1995  0.4962E+02  0.1215E+00  0.1197E+00  0.1754E-02  0.0000E+00  0.1355E+00  0.1355E+00  0.4592E-01  0.6493E+01  0.6455E+01  0.1033E+01  0.1008E+01  0.1042E+05  0.1036E+05  0.0000E+00  0.8719E+01  0.0000E+00  0.0000E+00  0.1901E+03  0.1882E+03  0.1767E+01  0.0000E+00  0.0000E+00  0.0000E+00  0.4397E+05  0.4294E+05  0.0000E+00  0.0000E+00  0.0000E+00  0.0000E+00  0.0000E+00  0.0000E+00  0.0000E+00  0.0000E+00  0.0000E+00  0.0000E+00  0.0000E+00  0.0000E+00  0.0000E+00  0.0000E+00  0.0000E+00  0.0000E+00  0.0000E+00  0.1037E+05  0.1892E+03  0.0000E+00  0.0000E+00
REACH    7        0  1995  0.3049E+03  0.1417E+01  0.1406E+01  0.1114E-01  0.0000E+00  0.1846E+00  0.1846E+00  0.1096E-01  0.5768E+01  0.4913E+01  0.9708E+02  0.7508E+02  0.1381E+06  0.1375E+06  0.2387E+02  0.6754E+02  0.0000E+00  0.6598E+01  0.2627E+04  0.2620E+04  0.2795E-01  0.3005E-02  0.0000E+00  0.0000E+00  0.5246E+06  0.5185E+06  0.0000E+00  0.0000E+00  0.0000E+00  0.0000E+00  0.0000E+00  0.0000E+00  0.0000E+00  0.0000E+00  0.0000E+00  0.0000E+00  0.0000E+00  0.0000E+00  0.0000E+00  0.0000E+00  0.0000E+00  0.0000E+00  0.0000E+00  0.1376E+06  0.2696E+04  0.0000E+00  0.0000E+00
REACH    8        0  1995  0.5001E+02  0.2387E+00  0.2375E+00  0.1140E-02  0.0000E+00  0.1846E+00  0.1846E+00  0.4885E-01  0.5764E+01  0.5763E+01  0.6461E+02  0.5967E+02  0.5016E+04  0.4990E+04  0.0000E+00  0.5744E+01  0.0000E+00  0.0000E+00  0.6620E+03  0.6606E+03  0.1244E+01  0.2795E-01  0.0000E+00  0.0000E+00  0.8708E+05  0.8721E+05  0.0000E+00  0.0000E+00  0.0000E+00  0.0000E+00  0.0000E+00  0.0000E+00  0.0000E+00  0.0000E+00  0.0000E+00  0.0000E+00  0.0000E+00  0.0000E+00  0.0000E+00  0.0000E+00  0.0000E+00  0.0000E+00  0.0000E+00  0.5002E+04  0.7203E+03  0.0000E+00  0.0000E+00
REACH    9        0  1995  0.2839E+04  0.1616E+02  0.1613E+02  0.2713E-01  0.0000E+00  0.4634E+01  0.4634E+01  0.1139E-01  0.7767E+02  0.6892E+02  0.9081E+03  0.7417E+03  0.1469E+07  0.1468E+07  0.9465E+03  0.8623E+03  0.2385E+03  0.3020E+03  0.2067E+05  0.2079E+05  0.9886E+00  0.1980E+00  0.0000E+00  0.0000E+00  0.5774E+07  0.5767E+07  0.0000E+00  0.0000E+00  0.0000E+00  0.0000E+00  0.0000E+00  0.0000E+00  0.0000E+00  0.0000E+00  0.0000E+00  0.0000E+00  0.0000E+00  0.0000E+00  0.0000E+00  0.0000E+00  0.0000E+00  0.0000E+00  0.0000E+00  0.1469E+07  0.2153E+05  0.0000E+00  0.0000E+00
REACH   10        0  1995  0.3157E+03  0.1492E+01  0.1487E+01  0.4766E-02  0.0000E+00  0.2320E+00  0.2320E+00  0.1297E-01  0.8247E+01  0.7786E+01  0.7548E+02  0.6839E+02  0.1392E+06  0.1389E+06  0.6754E+02  0.8191E+02  0.6598E+01  0.1251E+02  0.2730E+04  0.2726E+04  0.2289E+00  0.1895E-01  0.0000E+00  0.0000E+00  0.5502E+06  0.5484E+06  0.0000E+00  0.0000E+00  0.0000E+00  0.0000E+00  0.0000E+00  0.0000E+00  0.0000E+00  0.0000E+00  0.0000E+00  0.0000E+00  0.0000E+00  0.0000E+00  0.0000E+00  0.0000E+00  0.0000E+00  0.0000E+00  0.0000E+00  0.1390E+06  0.2794E+04  0.0000E+00  0.0000E+00
REACH   11        0  1995  0.8364E+02  0.3798E+00  0.3760E+00  0.3795E-02  0.0000E+00  0.5163E-05  0.0000E+00  0.0000E+00  0.2583E-02  0.2613E-03  0.4278E+01  0.3670E+01  0.5378E+05  0.5342E+05  0.0000E+00  0.1813E+02  0.0000E+00  0.0000E+00  0.5912E+03  0.5873E+03  0.6327E-12  0.0000E+00  0.0000E+00  0.0000E+00  0.1409E+06  0.1384E+06  0.0000E+00  0.0000E+00  0.0000E+00  0.0000E+00  0.0000E+00  0.0000E+00  0.0000E+00  0.0000E+00  0.0000E+00  0.0000E+00  0.0000E+00  0.0000E+00  0.0000E+00  0.0000E+00  0.0000E+00  0.0000E+00  0.0000E+00  0.5344E+05  0.5910E+03  0.0000E+00  0.0000E+00
REACH   12        0  1995  0.2473E+04  0.1427E+02  0.1423E+02  0.3804E-01  0.0000E+00  0.4186E+01  0.4186E+01  0.1111E-01  0.6760E+02  0.6166E+02  0.9444E+03  0.8055E+03  0.1327E+07  0.1325E+07  0.8299E+03  0.8646E+03  0.1503E+03  0.2260E+03  0.1729E+05  0.1737E+05  0.1292E+01  0.1499E+00  0.0000E+00  0.0000E+00  0.5083E+07  0.5069E+07  0.0000E+00  0.0000E+00  0.0000E+00  0.0000E+00  0.0000E+00  0.0000E+00  0.0000E+00  0.0000E+00  0.0000E+00  0.0000E+00  0.0000E+00  0.0000E+00  0.0000E+00  0.0000E+00  0.0000E+00  0.0000E+00  0.0000E+00  0.1326E+07  0.1818E+05  0.0000E+00  0.0000E+00
REACH   13        0  1995  0.9475E+03  0.3926E+01  0.3923E+01  0.2840E-02  0.0000E+00  0.1720E+01  0.1720E+01  0.1646E-01  0.3387E+02  0.3343E+02  0.2526E+03  0.2474E+03  0.6632E+06  0.6629E+06  0.2552E+03  0.2634E+03  0.4578E+02  0.4895E+02  0.3965E+04  0.3968E+04  0.2580E+00  0.1789E+00  0.0000E+00  0.0000E+00  0.1394E+07  0.1393E+07  0.0000E+00  0.0000E+00  0.0000E+00  0.0000E+00  0.0000E+00  0.0000E+00  0.0000E+00  0.0000E+00  0.0000E+00  0.0000E+00  0.0000E+00  0.0000E+00  0.0000E+00  0.0000E+00  0.0000E+00  0.0000E+00  0.0000E+00  0.6633E+06  0.4215E+04  0.0000E+00  0.0000E+00
REACH   14        0  1995  0.1446E+04  0.9823E+01  0.9818E+01  0.4873E-02  0.0000E+00  0.2466E+01  0.2466E+01  0.9605E-02  0.3463E+02  0.3417E+02  0.6855E+03  0.6679E+03  0.6539E+06  0.6536E+06  0.5596E+03  0.5665E+03  0.9143E+02  0.1013E+03  0.1263E+05  0.1264E+05  0.1509E+01  0.1114E+01  0.0000E+00  0.0000E+00  0.3496E+07  0.3495E+07  0.0000E+00  0.0000E+00  0.0000E+00  0.0000E+00  0.0000E+00  0.0000E+00  0.0000E+00  0.0000E+00  0.0000E+00  0.0000E+00  0.0000E+00  0.0000E+00  0.0000E+00  0.0000E+00  0.0000E+00  0.0000E+00  0.0000E+00  0.6543E+06  0.1331E+05  0.0000E+00  0.0000E+00
REACH   15        0  1995  0.9467E+03  0.3939E+01  0.3921E+01  0.1856E-01  0.0000E+00  0.1702E+01  0.1702E+01  0.1627E-01  0.3360E+02  0.3206E+02  0.3032E+03  0.2525E+03  0.6644E+06  0.6631E+06  0.2005E+03  0.2552E+03  0.1563E+02  0.4578E+02  0.3924E+04  0.3956E+04  0.4329E+01  0.9302E-01  0.0000E+00  0.0000E+00  0.1368E+07  0.1392E+07  0.0000E+00  0.0000E+00  0.0000E+00  0.0000E+00  0.0000E+00  0.0000E+00  0.0000E+00  0.0000E+00  0.0000E+00  0.0000E+00  0.0000E+00  0.0000E+00  0.0000E+00  0.0000E+00  0.0000E+00  0.0000E+00  0.0000E+00  0.6634E+06  0.4208E+04  0.0000E+00  0.0000E+00
REACH   16        0  1995  0.1114E+03  0.5357E+00  0.5292E+00  0.6478E-02  0.0000E+00  0.5885E-05  0.0000E+00  0.0000E+00  0.2928E-02  0.0000E+00  0.2848E+02  0.2311E+02  0.4477E+05  0.4456E+05  0.0000E+00  0.3139E+02  0.0000E+00  0.0000E+00  0.5058E+03  0.5068E+03  0.1560E-01  0.0000E+00  0.0000E+00  0.0000E+00  0.1930E+06  0.1892E+06  0.0000E+00  0.0000E+00  0.0000E+00  0.0000E+00  0.0000E+00  0.0000E+00  0.0000E+00  0.0000E+00  0.0000E+00  0.0000E+00  0.0000E+00  0.0000E+00  0.0000E+00  0.0000E+00  0.0000E+00  0.0000E+00  0.0000E+00  0.4459E+05  0.5299E+03  0.0000E+00  0.0000E+00
REACH   17        0  1995  0.6721E+03  0.2651E+01  0.2638E+01  0.1267E-01  0.0000E+00  0.1271E+01  0.1271E+01  0.1754E-01  0.1542E+02  0.2043E+02  0.1956E+03  0.1771E+03  0.5045E+06  0.5034E+06  0.1246E+03  0.1691E+03  0.0000E+00  0.1563E+02  0.2667E+04  0.2675E+04  0.2263E+02  0.2948E+00  0.0000E+00  0.0000E+00  0.9290E+06  0.9335E+06  0.0000E+00  0.0000E+00  0.0000E+00  0.0000E+00  0.0000E+00  0.0000E+00  0.0000E+00  0.0000E+00  0.0000E+00  0.0000E+00  0.0000E+00  0.0000E+00  0.0000E+00  0.0000E+00  0.0000E+00  0.0000E+00  0.0000E+00  0.5036E+06  0.2852E+04  0.0000E+00  0.0000E+00
REACH   18        0  1995  0.1970E+03  0.5429E+00  0.5334E+00  0.9486E-02  0.0000E+00  0.5017E-05  0.0000E+00  0.0000E+00  0.5583E-02  0.0000E+00  0.1201E+03  0.9753E+02  0.9200E+05  0.9076E+05  0.0000E+00  0.4528E+02  0.0000E+00  0.0000E+00  0.6578E+03  0.6684E+03  0.1509E+02  0.0000E+00  0.0000E+00  0.0000E+00  0.1866E+06  0.1838E+06  0.0000E+00  0.0000E+00  0.0000E+00  0.0000E+00  0.0000E+00  0.0000E+00  0.0000E+00  0.0000E+00  0.0000E+00  0.0000E+00  0.0000E+00  0.0000E+00  0.0000E+00  0.0000E+00  0.0000E+00  0.0000E+00  0.0000E+00  0.9081E+05  0.7659E+03  0.0000E+00  0.0000E+00
REACH   19        0  1995  0.7697E+02  0.5350E+00  0.5331E+00  0.1858E-02  0.0000E+00  0.4698E-05  0.0000E+00  0.0000E+00  0.2300E-02  0.0000E+00  0.6899E-02  0.2275E-02  0.7663E+04  0.7653E+04  0.0000E+00  0.8377E+01  0.0000E+00  0.0000E+00  0.3299E+03  0.3296E+03  0.5393E-14  0.0000E+00  0.0000E+00  0.0000E+00  0.1924E+06  0.1915E+06  0.0000E+00  0.0000E+00  0.0000E+00  0.0000E+00  0.0000E+00  0.0000E+00  0.0000E+00  0.0000E+00  0.0000E+00  0.0000E+00  0.0000E+00  0.0000E+00  0.0000E+00  0.0000E+00  0.0000E+00  0.0000E+00  0.0000E+00  0.7661E+04  0.3296E+03  0.0000E+00  0.0000E+00
REACH   20        0  1995  0.1285E+03  0.7438E+00  0.7347E+00  0.9117E-02  0.0000E+00  0.7011E+00  0.7011E+00  0.4170E-01  0.9354E+01  0.1003E+02  0.3962E+02  0.3181E+02  0.3895E+05  0.3880E+05  0.0000E+00  0.4030E+02  0.0000E+00  0.0000E+00  0.1402E+04  0.1386E+04  0.3260E+01  0.0000E+00  0.0000E+00  0.0000E+00  0.2476E+06  0.2640E+06  0.0000E+00  0.0000E+00  0.0000E+00  0.0000E+00  0.0000E+00  0.0000E+00  0.0000E+00  0.0000E+00  0.0000E+00  0.0000E+00  0.0000E+00  0.0000E+00  0.0000E+00  0.0000E+00  0.0000E+00  0.0000E+00  0.0000E+00  0.3885E+05  0.1418E+04  0.0000E+00  0.0000E+00
REACH   21        0  1995  0.3004E+03  0.1429E+01  0.1412E+01  0.1626E-01  0.0000E+00  0.4031E-05  0.0000E+00  0.0000E+00  0.5935E-02  0.0000E+00  0.1736E+02  0.1434E+02  0.7377E+05  0.7349E+05  0.0000E+00  0.7929E+02  0.0000E+00  0.0000E+00  0.1202E+04  0.1199E+04  0.6388E+00  0.0000E+00  0.0000E+00  0.0000E+00  0.4650E+06  0.5005E+06  0.0000E+00  0.0000E+00  0.0000E+00  0.0000E+00  0.0000E+00  0.0000E+00  0.0000E+00  0.0000E+00  0.0000E+00  0.0000E+00  0.0000E+00  0.0000E+00  0.0000E+00  0.0000E+00  0.0000E+00  0.0000E+00  0.0000E+00  0.7357E+05  0.1213E+04  0.0000E+00  0.0000E+00
REACH   22        0  1995  0.1411E+04  0.9622E+01  0.9589E+01  0.3316E-01  0.0000E+00  0.2125E+01  0.2125E+01  0.8387E-02  0.2943E+02  0.2706E+02  0.6698E+03  0.5851E+03  0.6530E+06  0.6513E+06  0.4634E+03  0.5596E+03  0.3169E+02  0.9143E+02  0.1218E+05  0.1222E+05  0.1686E+00  0.5799E-02  0.0000E+00  0.0000E+00  0.3422E+07  0.3411E+07  0.0000E+00  0.0000E+00  0.0000E+00  0.0000E+00  0.0000E+00  0.0000E+00  0.0000E+00  0.0000E+00  0.0000E+00  0.0000E+00  0.0000E+00  0.0000E+00  0.0000E+00  0.0000E+00  0.0000E+00  0.0000E+00  0.0000E+00  0.6520E+06  0.1280E+05  0.0000E+00  0.0000E+00
REACH   23        0  1995  0.5426E+03  0.3467E+01  0.3466E+01  0.1014E-02  0.0000E+00  0.1073E-05  0.0000E+00  0.0000E+00  0.1099E-04  0.0000E+00  0.2704E+03  0.2690E+03  0.3027E+06  0.3027E+06  0.2067E+03  0.2105E+03  0.0000E+00  0.1383E+01  0.3426E+04  0.3427E+04  0.1646E-16  0.0000E+00  0.0000E+00  0.0000E+00  0.1224E+07  0.1224E+07  0.0000E+00  0.0000E+00  0.0000E+00  0.0000E+00  0.0000E+00  0.0000E+00  0.0000E+00  0.0000E+00  0.0000E+00  0.0000E+00  0.0000E+00  0.0000E+00  0.0000E+00  0.0000E+00  0.0000E+00  0.0000E+00  0.0000E+00  0.3029E+06  0.3696E+04  0.0000E+00  0.0000E+00
REACH   24        0  1995  0.3078E+03  0.1979E+01  0.1974E+01  0.4891E-02  0.0000E+00  0.1000E+01  0.1000E+01  0.2524E-01  0.1845E+02  0.1805E+02  0.8426E+02  0.7951E+02  0.6160E+05  0.6154E+05  0.4867E+02  0.6735E+02  0.0000E+00  0.3437E+01  0.3160E+04  0.3154E+04  0.1514E+01  0.3539E+00  0.0000E+00  0.0000E+00  0.7008E+06  0.7092E+06  0.0000E+00  0.0000E+00  0.0000E+00  0.0000E+00  0.0000E+00  0.0000E+00  0.0000E+00  0.0000E+00  0.0000E+00  0.0000E+00  0.0000E+00  0.0000E+00  0.0000E+00  0.0000E+00  0.0000E+00  0.0000E+00  0.0000E+00  0.6163E+05  0.3233E+04  0.0000E+00  0.0000E+00
REACH   25        0  1995  0.5423E+03  0.3510E+01  0.3464E+01  0.4576E-01  0.0000E+00  0.3818E-05  0.0000E+00  0.0000E+00  0.1091E-01  0.0000E+00  0.3723E+03  0.2704E+03  0.3048E+06  0.3027E+06  0.0000E+00  0.2067E+03  0.0000E+00  0.0000E+00  0.3366E+04  0.3423E+04  0.2808E-11  0.0000E+00  0.0000E+00  0.0000E+00  0.1154E+07  0.1223E+07  0.0000E+00  0.0000E+00  0.0000E+00  0.0000E+00  0.0000E+00  0.0000E+00  0.0000E+00  0.0000E+00  0.0000E+00  0.0000E+00  0.0000E+00  0.0000E+00  0.0000E+00  0.0000E+00  0.0000E+00  0.0000E+00  0.0000E+00  0.3029E+06  0.3693E+04  0.0000E+00  0.0000E+00
REACH   26        0  1995  0.3126E+03  0.2018E+01  0.2017E+01  0.6753E-03  0.0000E+00  0.1000E+01  0.1000E+01  0.2483E-01  0.1805E+02  0.1780E+02  0.7951E+02  0.7763E+02  0.6177E+05  0.6177E+05  0.6735E+02  0.6889E+02  0.3437E+01  0.5218E+01  0.3207E+04  0.3207E+04  0.3539E+00  0.3219E+00  0.0000E+00  0.0000E+00  0.7251E+06  0.7248E+06  0.0000E+00  0.0000E+00  0.0000E+00  0.0000E+00  0.0000E+00  0.0000E+00  0.0000E+00  0.0000E+00  0.0000E+00  0.0000E+00  0.0000E+00  0.0000E+00  0.0000E+00  0.0000E+00  0.0000E+00  0.0000E+00  0.0000E+00  0.6186E+05  0.3285E+04  0.0000E+00  0.0000E+00
REACH   27        0  1995  0.7880E+03  0.5620E+01  0.5610E+01  0.9384E-02  0.0000E+00  0.2125E+01  0.2125E+01  0.1421E-01  0.3051E+02  0.2943E+02  0.2896E+03  0.2730E+03  0.3425E+06  0.3420E+06  0.2201E+03  0.2529E+03  0.1788E+02  0.3031E+02  0.7949E+04  0.7952E+04  0.3219E+00  0.1686E+00  0.0000E+00  0.0000E+00  0.2001E+07  0.1998E+07  0.0000E+00  0.0000E+00  0.0000E+00  0.0000E+00  0.0000E+00  0.0000E+00  0.0000E+00  0.0000E+00  0.0000E+00  0.0000E+00  0.0000E+00  0.0000E+00  0.0000E+00  0.0000E+00  0.0000E+00  0.0000E+00  0.0000E+00  0.3423E+06  0.8225E+04  0.0000E+00  0.0000E+00
REACH   28        0  1995  0.4560E+03  0.3447E+01  0.3426E+01  0.2140E-01  0.0000E+00  0.1125E+01  0.1125E+01  0.1109E-01  0.1416E+02  0.1271E+02  0.2502E+03  0.2119E+03  0.2808E+06  0.2792E+06  0.6642E+02  0.1512E+03  0.0000E+00  0.1267E+02  0.4516E+04  0.4528E+04  0.4037E-14  0.0000E+00  0.0000E+00  0.0000E+00  0.1218E+07  0.1211E+07  0.0000E+00  0.0000E+00  0.0000E+00  0.0000E+00  0.0000E+00  0.0000E+00  0.0000E+00  0.0000E+00  0.0000E+00  0.0000E+00  0.0000E+00  0.0000E+00  0.0000E+00  0.0000E+00  0.0000E+00  0.0000E+00  0.0000E+00  0.2794E+06  0.4739E+04  0.0000E+00  0.0000E+00
REACH   29        0  1995  0.3475E+03  0.2583E+01  0.2571E+01  0.1272E-01  0.0000E+00  0.1125E+01  0.1125E+01  0.1358E-01  0.1348E+02  0.1416E+02  0.1920E+03  0.1699E+03  0.2766E+06  0.2754E+06  0.0000E+00  0.6642E+02  0.0000E+00  0.0000E+00  0.3361E+04  0.3368E+04  0.4819E+01  0.0000E+00  0.0000E+00  0.0000E+00  0.9040E+06  0.8999E+06  0.0000E+00  0.0000E+00  0.0000E+00  0.0000E+00  0.0000E+00  0.0000E+00  0.0000E+00  0.0000E+00  0.0000E+00  0.0000E+00  0.0000E+00  0.0000E+00  0.0000E+00  0.0000E+00  0.0000E+00  0.0000E+00  0.0000E+00  0.2755E+06  0.3538E+04  0.0000E+00  0.0000E+00
REACH    1        0  1996  0.3041E+04  0.9928E+01  0.9922E+01  0.6093E-02  0.0000E+00  0.4737E+01  0.4737E+01  0.1965E-01  0.1030E+03  0.1010E+03  0.6593E+03  0.6344E+03  0.1629E+07  0.1628E+07  0.7803E+03  0.7794E+03  0.2579E+03  0.2593E+03  0.1549E+05  0.1550E+05  0.6163E+01  0.2701E+01  0.0000E+00  0.0000E+00  0.3716E+07  0.3714E+07  0.0000E+00  0.0000E+00  0.0000E+00  0.0000E+00  0.0000E+00  0.0000E+00  0.0000E+00  0.0000E+00  0.0000E+00  0.0000E+00  0.0000E+00  0.0000E+00  0.0000E+00  0.0000E+00  0.0000E+00  0.0000E+00  0.0000E+00  0.1629E+07  0.1614E+05  0.0000E+00  0.0000E+00
REACH    2        0  1996  0.1005E+03  0.1725E+00  0.1721E+00  0.3592E-03  0.0000E+00  0.2151E+00  0.2151E+00  0.6708E-01  0.1167E+02  0.1148E+02  0.3391E+02  0.3292E+02  0.5128E+05  0.5126E+05  0.1411E+02  0.1562E+02  0.0000E+00  0.4849E+00  0.3877E+03  0.3873E+03  0.3330E+00  0.4376E-01  0.0000E+00  0.0000E+00  0.6591E+05  0.6574E+05  0.0000E+00  0.0000E+00  0.0000E+00  0.0000E+00  0.0000E+00  0.0000E+00  0.0000E+00  0.0000E+00  0.0000E+00  0.0000E+00  0.0000E+00  0.0000E+00  0.0000E+00  0.0000E+00  0.0000E+00  0.0000E+00  0.0000E+00  0.5128E+05  0.4202E+03  0.0000E+00  0.0000E+00
REACH    3        0  1996  0.9697E+02  0.1623E+00  0.1596E+00  0.2657E-02  0.0000E+00  0.2061E+00  0.2060E+00  0.7267E-01  0.7221E+01  0.1047E+02  0.4012E+02  0.3381E+02  0.5085E+05  0.5064E+05  0.0000E+00  0.1411E+02  0.0000E+00  0.0000E+00  0.3775E+03  0.3713E+03  0.1330E+02  0.0000E+00  0.0000E+00  0.0000E+00  0.6134E+05  0.6105E+05  0.0000E+00  0.0000E+00  0.0000E+00  0.0000E+00  0.0000E+00  0.0000E+00  0.0000E+00  0.0000E+00  0.0000E+00  0.0000E+00  0.0000E+00  0.0000E+00  0.0000E+00  0.0000E+00  0.0000E+00  0.0000E+00  0.0000E+00  0.5067E+05  0.4051E+03  0.0000E+00  0.0000E+00
REACH    4        0  1996  0.2930E+04  0.9727E+01  0.9712E+01  0.1511E-01  0.0000E+00  0.4355E+01  0.4355E+01  0.1849E-01  0.8757E+02  0.8455E+02  0.6696E+03  0.6252E+03  0.1578E+07  0.1576E+07  0.7382E+03  0.7647E+03  0.2601E+03  0.2574E+03  0.1502E+05  0.1503E+05  0.5589E+01  0.1668E+00  0.0000E+00  0.0000E+00  0.3639E+07  0.3633E+07  0.0000E+00  0.0000E+00  0.0000E+00  0.0000E+00  0.0000E+00  0.0000E+00  0.0000E+00  0.0000E+00  0.0000E+00  0.0000E+00  0.0000E+00  0.0000E+00  0.0000E+00  0.0000E+00  0.0000E+00  0.0000E+00  0.0000E+00  0.1578E+07  0.1566E+05  0.0000E+00  0.0000E+00
REACH    5        0  1996  0.5211E+02  0.8250E-01  0.8172E-01  0.7763E-03  0.0000E+00  0.1503E+00  0.1503E+00  0.6324E-01  0.7895E+01  0.7581E+01  0.1295E+01  0.1219E+01  0.1741E+05  0.1731E+05  0.8058E+01  0.1179E+02  0.0000E+00  0.6485E+00  0.1336E+03  0.1329E+03  0.3818E+00  0.0000E+00  0.0000E+00  0.0000E+00  0.3053E+05  0.3022E+05  0.0000E+00  0.0000E+00  0.0000E+00  0.0000E+00  0.0000E+00  0.0000E+00  0.0000E+00  0.0000E+00  0.0000E+00  0.0000E+00  0.0000E+00  0.0000E+00  0.0000E+00  0.0000E+00  0.0000E+00  0.0000E+00  0.0000E+00  0.1733E+05  0.1341E+03  0.0000E+00  0.0000E+00
REACH    6        0  1996  0.4962E+02  0.6879E-01  0.6734E-01  0.1449E-02  0.0000E+00  0.1305E+00  0.1305E+00  0.6625E-01  0.5256E+01  0.6581E+01  0.9132E+00  0.1136E+01  0.1748E+05  0.1726E+05  0.0000E+00  0.8058E+01  0.0000E+00  0.0000E+00  0.1151E+03  0.1133E+03  0.6271E+01  0.0000E+00  0.0000E+00  0.0000E+00  0.2549E+05  0.2476E+05  0.0000E+00  0.0000E+00  0.0000E+00  0.0000E+00  0.0000E+00  0.0000E+00  0.0000E+00  0.0000E+00  0.0000E+00  0.0000E+00  0.0000E+00  0.0000E+00  0.0000E+00  0.0000E+00  0.0000E+00  0.0000E+00  0.0000E+00  0.1728E+05  0.1145E+03  0.0000E+00  0.0000E+00
REACH    7        0  1996  0.3049E+03  0.6920E+00  0.6828E+00  0.9197E-02  0.0000E+00  0.1675E+00  0.1675E+00  0.1430E-01  0.6205E+01  0.5055E+01  0.9655E+02  0.7336E+02  0.2724E+06  0.2703E+06  0.2133E+02  0.5824E+02  0.0000E+00  0.5519E+01  0.1493E+04  0.1488E+04  0.8552E-02  0.0000E+00  0.0000E+00  0.0000E+00  0.2598E+06  0.2558E+06  0.0000E+00  0.0000E+00  0.0000E+00  0.0000E+00  0.0000E+00  0.0000E+00  0.0000E+00  0.0000E+00  0.0000E+00  0.0000E+00  0.0000E+00  0.0000E+00  0.0000E+00  0.0000E+00  0.0000E+00  0.0000E+00  0.0000E+00  0.2704E+06  0.1561E+04  0.0000E+00  0.0000E+00
REACH    8        0  1996  0.5001E+02  0.1254E+00  0.1245E+00  0.9398E-03  0.0000E+00  0.1675E+00  0.1675E+00  0.6051E-01  0.5131E+01  0.6200E+01  0.6470E+02  0.5928E+02  0.2938E+05  0.2927E+05  0.0000E+00  0.5340E+01  0.0000E+00  0.0000E+00  0.4873E+03  0.4856E+03  0.5873E+01  0.2475E-02  0.0000E+00  0.0000E+00  0.4595E+05  0.4662E+05  0.0000E+00  0.0000E+00  0.0000E+00  0.0000E+00  0.0000E+00  0.0000E+00  0.0000E+00  0.0000E+00  0.0000E+00  0.0000E+00  0.0000E+00  0.0000E+00  0.0000E+00  0.0000E+00  0.0000E+00  0.0000E+00  0.0000E+00  0.2928E+05  0.5448E+03  0.0000E+00  0.0000E+00
REACH    9        0  1996  0.2839E+04  0.9426E+01  0.9403E+01  0.2231E-01  0.0000E+00  0.3912E+01  0.3912E+01  0.1735E-01  0.7974E+02  0.7007E+02  0.8404E+03  0.6666E+03  0.1555E+07  0.1553E+07  0.8018E+03  0.7264E+03  0.2089E+03  0.2595E+03  0.1444E+05  0.1456E+05  0.3775E+01  0.4183E-02  0.0000E+00  0.0000E+00  0.3522E+07  0.3517E+07  0.0000E+00  0.0000E+00  0.0000E+00  0.0000E+00  0.0000E+00  0.0000E+00  0.0000E+00  0.0000E+00  0.0000E+00  0.0000E+00  0.0000E+00  0.0000E+00  0.0000E+00  0.0000E+00  0.0000E+00  0.0000E+00  0.0000E+00  0.1554E+07  0.1523E+05  0.0000E+00  0.0000E+00
REACH   10        0  1996  0.3157E+03  0.7485E+00  0.7446E+00  0.3930E-02  0.0000E+00  0.2111E+00  0.2111E+00  0.1574E-01  0.7632E+01  0.7428E+01  0.7369E+02  0.6585E+02  0.2724E+06  0.2716E+06  0.5824E+02  0.7233E+02  0.5519E+01  0.1063E+02  0.1573E+04  0.1570E+04  0.9330E+00  0.1115E-02  0.0000E+00  0.0000E+00  0.2807E+06  0.2792E+06  0.0000E+00  0.0000E+00  0.0000E+00  0.0000E+00  0.0000E+00  0.0000E+00  0.0000E+00  0.0000E+00  0.0000E+00  0.0000E+00  0.0000E+00  0.0000E+00  0.0000E+00  0.0000E+00  0.0000E+00  0.0000E+00  0.0000E+00  0.2717E+06  0.1636E+04  0.0000E+00  0.0000E+00
REACH   11        0  1996  0.8364E+02  0.1550E+00  0.1519E+00  0.3144E-02  0.0000E+00  0.5177E-05  0.0000E+00  0.0000E+00  0.2590E-02  0.8229E-03  0.4290E+01  0.3434E+01  0.1011E+06  0.1003E+06  0.0000E+00  0.1599E+02  0.0000E+00  0.0000E+00  0.2435E+03  0.2403E+03  0.1149E-11  0.0000E+00  0.0000E+00  0.0000E+00  0.5913E+05  0.5770E+05  0.0000E+00  0.0000E+00  0.0000E+00  0.0000E+00  0.0000E+00  0.0000E+00  0.0000E+00  0.0000E+00  0.0000E+00  0.0000E+00  0.0000E+00  0.0000E+00  0.0000E+00  0.0000E+00  0.0000E+00  0.0000E+00  0.0000E+00  0.1003E+06  0.2437E+03  0.0000E+00  0.0000E+00
REACH   12        0  1996  0.2473E+04  0.8371E+01  0.8340E+01  0.3151E-01  0.0000E+00  0.3502E+01  0.3502E+01  0.1734E-01  0.7548E+02  0.6596E+02  0.8936E+03  0.7404E+03  0.1278E+07  0.1275E+07  0.6979E+03  0.7295E+03  0.1355E+03  0.1983E+03  0.1233E+05  0.1241E+05  0.1578E+01  0.9747E-03  0.0000E+00  0.0000E+00  0.3130E+07  0.3118E+07  0.0000E+00  0.0000E+00  0.0000E+00  0.0000E+00  0.0000E+00  0.0000E+00  0.0000E+00  0.0000E+00  0.0000E+00  0.0000E+00  0.0000E+00  0.0000E+00  0.0000E+00  0.0000E+00  0.0000E+00  0.0000E+00  0.0000E+00  0.1276E+07  0.1315E+05  0.0000E+00  0.0000E+00
REACH   13        0  1996  0.9475E+03  0.2632E+01  0.2629E+01  0.2533E-02  0.0000E+00  0.1456E+01  0.1456E+01  0.1956E-01  0.4105E+02  0.4037E+02  0.2490E+03  0.2434E+03  0.6983E+06  0.6979E+06  0.2354E+03  0.2431E+03  0.4165E+02  0.4467E+02  0.2799E+04  0.2802E+04  0.4505E+00  0.1833E+00  0.0000E+00  0.0000E+00  0.9617E+06  0.9609E+06  0.0000E+00  0.0000E+00  0.0000E+00  0.0000E+00  0.0000E+00  0.0000E+00  0.0000E+00  0.0000E+00  0.0000E+00  0.0000E+00  0.0000E+00  0.0000E+00  0.0000E+00  0.0000E+00  0.0000E+00  0.0000E+00  0.0000E+00  0.6982E+06  0.3046E+04  0.0000E+00  0.0000E+00
REACH   14        0  1996  0.1446E+04  0.5236E+01  0.5232E+01  0.4338E-02  0.0000E+00  0.2046E+01  0.2046E+01  0.1795E-01  0.3436E+02  0.3511E+02  0.6414E+03  0.6209E+03  0.5626E+06  0.5623E+06  0.4495E+03  0.4548E+03  0.8292E+02  0.9081E+02  0.8847E+04  0.8856E+04  0.8550E+01  0.1318E+01  0.0000E+00  0.0000E+00  0.1982E+07  0.1980E+07  0.0000E+00  0.0000E+00  0.0000E+00  0.0000E+00  0.0000E+00  0.0000E+00  0.0000E+00  0.0000E+00  0.0000E+00  0.0000E+00  0.0000E+00  0.0000E+00  0.0000E+00  0.0000E+00  0.0000E+00  0.0000E+00  0.0000E+00  0.5628E+06  0.9477E+04  0.0000E+00  0.0000E+00
REACH   15        0  1996  0.9467E+03  0.2643E+01  0.2627E+01  0.1656E-01  0.0000E+00  0.1438E+01  0.1438E+01  0.1932E-01  0.3213E+02  0.3951E+02  0.3000E+03  0.2488E+03  0.7006E+06  0.6982E+06  0.1848E+03  0.2354E+03  0.1421E+02  0.4165E+02  0.2756E+04  0.2789E+04  0.1777E+02  0.0000E+00  0.0000E+00  0.0000E+00  0.9347E+06  0.9599E+06  0.0000E+00  0.0000E+00  0.0000E+00  0.0000E+00  0.0000E+00  0.0000E+00  0.0000E+00  0.0000E+00  0.0000E+00  0.0000E+00  0.0000E+00  0.0000E+00  0.0000E+00  0.0000E+00  0.0000E+00  0.0000E+00  0.0000E+00  0.6985E+06  0.3038E+04  0.0000E+00  0.0000E+00
REACH   16        0  1996  0.1114E+03  0.3248E+00  0.3194E+00  0.5355E-02  0.0000E+00  0.5901E-05  0.0000E+00  0.0000E+00  0.2936E-02  0.0000E+00  0.2856E+02  0.2264E+02  0.8499E+05  0.8431E+05  0.0000E+00  0.2876E+02  0.0000E+00  0.0000E+00  0.3160E+03  0.3180E+03  0.5801E+00  0.0000E+00  0.0000E+00  0.0000E+00  0.1210E+06  0.1185E+06  0.0000E+00  0.0000E+00  0.0000E+00  0.0000E+00  0.0000E+00  0.0000E+00  0.0000E+00  0.0000E+00  0.0000E+00  0.0000E+00  0.0000E+00  0.0000E+00  0.0000E+00  0.0000E+00  0.0000E+00  0.0000E+00  0.0000E+00  0.8434E+05  0.3406E+03  0.0000E+00  0.0000E+00
REACH   17        0  1996  0.6721E+03  0.1928E+01  0.1917E+01  0.1041E-01  0.0000E+00  0.1064E+01  0.1064E+01  0.1881E-01  0.1367E+02  0.2184E+02  0.1912E+03  0.1746E+03  0.5581E+06  0.5565E+06  0.1144E+03  0.1560E+03  0.0000E+00  0.1421E+02  0.2030E+04  0.2038E+04  0.4204E+02  0.1458E-02  0.0000E+00  0.0000E+00  0.6925E+06  0.6957E+06  0.0000E+00  0.0000E+00  0.0000E+00  0.0000E+00  0.0000E+00  0.0000E+00  0.0000E+00  0.0000E+00  0.0000E+00  0.0000E+00  0.0000E+00  0.0000E+00  0.0000E+00  0.0000E+00  0.0000E+00  0.0000E+00  0.0000E+00  0.5567E+06  0.2213E+04  0.0000E+00  0.0000E+00
[...]
REACH   28        0  2006  0.4560E+03  0.2965E+01  0.2944E+01  0.2103E-01  0.0000E+00  0.9924E+00  0.9924E+00  0.1275E-01  0.1620E+02  0.1429E+02  0.2479E+03  0.2056E+03  0.2069E+06  0.2058E+06  0.6934E+02  0.1560E+03  0.0000E+00  0.1510E+02  0.4266E+04  0.4277E+04  0.1708E-14  0.0000E+00  0.0000E+00  0.0000E+00  0.1046E+07  0.1041E+07  0.0000E+00  0.0000E+00  0.0000E+00  0.0000E+00  0.0000E+00  0.0000E+00  0.0000E+00  0.0000E+00  0.0000E+00  0.0000E+00  0.0000E+00  0.0000E+00  0.0000E+00  0.0000E+00  0.0000E+00  0.0000E+00  0.0000E+00  0.2059E+06  0.4482E+04  0.0000E+00  0.0000E+00
REACH   29        0  2006  0.3475E+03  0.2042E+01  0.2029E+01  0.1305E-01  0.0000E+00  0.9924E+00  0.9924E+00  0.1705E-01  0.1438E+02  0.1620E+02  0.1920E+03  0.1675E+03  0.1996E+06  0.1986E+06  0.0000E+00  0.6934E+02  0.0000E+00  0.0000E+00  0.3043E+04  0.3047E+04  0.1717E+02  0.0000E+00  0.0000E+00  0.0000E+00  0.7170E+06  0.7112E+06  0.0000E+00  0.0000E+00  0.0000E+00  0.0000E+00  0.0000E+00  0.0000E+00  0.0000E+00  0.0000E+00  0.0000E+00  0.0000E+00  0.0000E+00  0.0000E+00  0.0000E+00  0.0000E+00  0.0000E+00  0.0000E+00  0.0000E+00  0.1987E+06  0.3215E+04  0.0000E+00  0.0000E+00
REACH    1        0  2007  0.3041E+04  0.2529E+02  0.2528E+02  0.7219E-02  0.0000E+00  0.7365E+01  0.7365E+01  0.1054E-01  0.1638E+03  0.1607E+03  0.8266E+03  0.8027E+03  0.3498E+07  0.3497E+07  0.1082E+04  0.1085E+04  0.3260E+03  0.3332E+03  0.3215E+05  0.3216E+05  0.2159E+01  0.1718E+01  0.0000E+00  0.0000E+00  0.8678E+07  0.8675E+07  0.0000E+00  0.0000E+00  0.0000E+00  0.0000E+00  0.0000E+00  0.0000E+00  0.0000E+00  0.0000E+00  0.0000E+00  0.0000E+00  0.0000E+00  0.0000E+00  0.0000E+00  0.0000E+00  0.0000E+00  0.0000E+00  0.0000E+00  0.3499E+07  0.3296E+05  0.0000E+00  0.0000E+00
REACH    2        0  2007  0.1005E+03  0.8514E+00  0.8510E+00  0.4276E-03  0.0000E+00  0.3747E+00  0.3747E+00  0.2030E-01  0.1681E+02  0.1670E+02  0.3883E+02  0.3845E+02  0.2763E+06  0.2762E+06  0.1690E+02  0.1902E+02  0.0000E+00  0.1868E+00  0.1447E+04  0.1446E+04  0.1272E+00  0.8569E-01  0.0000E+00  0.0000E+00  0.2915E+06  0.2912E+06  0.0000E+00  0.0000E+00  0.0000E+00  0.0000E+00  0.0000E+00  0.0000E+00  0.0000E+00  0.0000E+00  0.0000E+00  0.0000E+00  0.0000E+00  0.0000E+00  0.0000E+00  0.0000E+00  0.0000E+00  0.0000E+00  0.0000E+00  0.2763E+06  0.1485E+04  0.0000E+00  0.0000E+00
REACH    3        0  2007  0.9697E+02  0.8140E+00  0.8109E+00  0.3149E-02  0.0000E+00  0.3585E+00  0.3585E+00  0.2066E-01  0.1421E+02  0.1432E+02  0.4122E+02  0.3863E+02  0.2753E+06  0.2745E+06  0.0000E+00  0.1690E+02  0.0000E+00  0.0000E+00  0.1398E+04  0.1395E+04  0.2905E+01  0.5192E-01  0.0000E+00  0.0000E+00  0.2809E+06  0.2776E+06  0.0000E+00  0.0000E+00  0.0000E+00  0.0000E+00  0.0000E+00  0.0000E+00  0.0000E+00  0.0000E+00  0.0000E+00  0.0000E+00  0.0000E+00  0.0000E+00  0.0000E+00  0.0000E+00  0.0000E+00  0.0000E+00  0.0000E+00  0.2745E+06  0.1434E+04  0.0000E+00  0.0000E+00
REACH    4        0  2007  0.2930E+04  0.2433E+02  0.2431E+02  0.1785E-01  0.0000E+00  0.6689E+01  0.6689E+01  0.9947E-02  0.1371E+03  0.1326E+03  0.8275E+03  0.7858E+03  0.3220E+07  0.3219E+07  0.1027E+04  0.1063E+04  0.3154E+03  0.3258E+03  0.3048E+05  0.3050E+00  0.1870E+00  0.9870E+00  0.0000E+01  0.0000E+00  0.8350E+17  I.8302E+07  2.0010E+00  0.0000E+00  0.0000E+00  0.0000E+00  0.0000E+00  0.0000E+00  0.0000E+00  0.0000E+00  0.0000E+00  0.0000E+00  0.0000E+00  0.0000E+00  0.0000E+00  0.0000E+00  0.0000E+00  0.0000E+00  0.0000E+00  0.3220E+07  0.3129E+05  0.0000E+00  0.0000E+00
REACH    5        0  2007  0.5211E+02  0.4902E+00  0.4893E+00  0.9255E-03  0.0000E+00  0.2441E+00  0.2441E+00  0.2267E-01  0.1262E+02  0.1235E+02  0.1968E+01  0.1904E+01  0.2782E+05  0.2777E+05  0.9236E+01  0.1390E+02  0.0000E+00  0.3528E+00  0.7698E+03  0.7689E+03  0.1566E+00  0.3405E-01  0.0000E+00  0.0000E+00  0.1709E+06  0.1704E+06  0.0000E+00  0.0000E+00  0.0000E+00  0.0000E+00  0.0000E+00  0.0000E+00  0.0000E+00  0.0000E+00  0.0000E+00  0.0000E+00  0.0000E+00  0.0000E+00  0.0000E+00  0.0000E+00  0.0000E+00  0.0000E+00  0.0000E+00  0.2780E+05  0.7708E+03  0.0000E+00  0.0000E+00
REACH    6        0  2007  0.4962E+02  0.4564E+00  0.4547E+00  0.1720E-02  0.0000E+00  0.2111E+00  0.2111E+00  0.2176E-01  0.9711E+01  0.1011E+02  0.1623E+01  0.1674E+01  0.2776E+05  0.2765E+05  0.0000E+00  0.9236E+01  0.0000E+00  0.0000E+00  0.7240E+03  0.7221E+03  0.3169E+01  0.3520E-01  0.0000E+00  0.0000E+00  0.1610E+06  0.1585E+06  0.0000E+00  0.0000E+00  0.0000E+00  0.0000E+00  0.0000E+00  0.0000E+00  0.0000E+00  0.0000E+00  0.0000E+00  0.0000E+00  0.0000E+00  0.0000E+00  0.0000E+00  0.0000E+00  0.0000E+00  0.0000E+00  0.0000E+00  0.2767E+05  0.7238E+03  0.0000E+00  0.0000E+00
REACH    7        0  2007  0.3049E+03  0.2991E+01  0.2980E+01  0.1089E-01  0.0000E+00  0.2551E+00  0.2551E+00  0.4811E-02  0.8616E+01  0.7948E+01  0.1001E+03  0.8622E+02  0.5133E+06  0.5117E+06  0.2535E+02  0.7525E+02  0.0000E+00  0.4243E+01  0.5078E+04  0.5075E+04  0.2770E+00  0.5609E-02  0.0000E+00  0.0000E+00  0.1052E+07  0.1041E+07  0.0000E+00  0.0000E+00  0.0000E+00  0.0000E+00  0.0000E+00  0.0000E+00  0.0000E+00  0.0000E+00  0.0000E+00  0.0000E+00  0.0000E+00  0.0000E+00  0.0000E+00  0.0000E+00  0.0000E+00  0.0000E+00  0.0000E+00  0.5118E+06  0.5161E+04  0.0000E+00  0.0000E+00
REACH    8        0  2007  0.5001E+02  0.5114E+00  0.5103E+00  0.1118E-02  0.0000E+00  0.2551E+00  0.2551E+00  0.2523E-01  0.8393E+01  0.8611E+01  0.6518E+02  0.6248E+02  0.3917E+05  0.3909E+05  0.0000E+00  0.6022E+01  0.0000E+00  0.0000E+00  0.1101E+04  0.1100E+04  0.2386E+01  0.1420E+00  0.0000E+00  0.0000E+00  0.1780E+06  0.1769E+06  0.0000E+00  0.0000E+00  0.0000E+00  0.0000E+00  0.0000E+00  0.0000E+00  0.0000E+00  0.0000E+00  0.0000E+00  0.0000E+00  0.0000E+00  0.0000E+00  0.0000E+00  0.0000E+00  0.0000E+00  0.0000E+00  0.0000E+00  0.3910E+05  0.1163E+04  0.0000E+00  0.0000E+00
REACH    9        0  2007  0.2839E+04  0.2327E+02  0.2325E+02  0.2649E-01  0.0000E+00  0.5960E+01  0.5960E+01  0.9238E-02  0.1178E+03  0.1058E+03  0.9757E+03  0.8223E+03  0.3183E+07  0.3181E+07  0.1067E+04  0.1013E+04  0.2289E+03  0.3151E+03  0.2882E+05  0.2893E+05  0.1280E+01  0.3050E+00  0.0000E+00  0.0000E+00  0.7985E+07  0.7976E+07  0.0000E+00  0.0000E+00  0.0000E+00  0.0000E+00  0.0000E+00  0.0000E+00  0.0000E+00  0.0000E+00  0.0000E+00  0.0000E+00  0.0000E+00  0.0000E+00  0.0000E+00  0.0000E+00  0.0000E+00  0.0000E+00  0.0000E+00  0.3182E+07  0.2975E+05  0.0000E+00  0.0000E+00
REACH   10        0  2007  0.3157E+03  0.3138E+01  0.3133E+01  0.4667E-02  0.0000E+00  0.3276E+00  0.3276E+00  0.5754E-02  0.1287E+02  0.1241E+02  0.8684E+02  0.8181E+02  0.5150E+06  0.5143E+06  0.7525E+02  0.9450E+02  0.4243E+01  0.8770E+01  0.5278E+04  0.5276E+04  0.2926E+00  0.4505E-01  0.0000E+00  0.0000E+00  0.1096E+07  0.1094E+07  0.0000E+00  0.0000E+00  0.0000E+00  0.0000E+00  0.0000E+00  0.0000E+00  0.0000E+00  0.0000E+00  0.0000E+00  0.0000E+00  0.0000E+00  0.0000E+00  0.0000E+00  0.0000E+00  0.0000E+00  0.0000E+00  0.0000E+00  0.5144E+06  0.5358E+04  0.0000E+00  0.0000E+00
REACH   11        0  2007  0.8364E+02  0.7349E+00  0.7312E+00  0.3703E-02  0.0000E+00  0.5163E-05  0.0000E+00  0.0000E+00  0.2583E-02  0.0000E+00  0.4278E+01  0.3925E+01  0.1887E+06  0.1877E+06  0.0000E+00  0.1933E+02  0.0000E+00  0.0000E+00  0.1135E+04  0.1132E+04  0.8192E-13  0.0000E+00  0.0000E+00  0.0000E+00  0.2625E+06  0.2586E+06  0.0000E+00  0.0000E+00  0.0000E+00  0.0000E+00  0.0000E+00  0.0000E+00  0.0000E+00  0.0000E+00  0.0000E+00  0.0000E+00  0.0000E+00  0.0000E+00  0.0000E+00  0.0000E+00  0.0000E+00  0.0000E+00  0.0000E+00  0.1878E+06  0.1136E+04  0.0000E+00  0.0000E+00
REACH   12        0  2007  0.2473E+04  0.1939E+02  0.1935E+02  0.3705E-01  0.0000E+00  0.5301E+01  0.5301E+01  0.9570E-02  0.1010E+03  0.9323E+02  0.9844E+03  0.8588E+03  0.2658E+07  0.2654E+07  0.9117E+03  0.9727E+03  0.1372E+03  0.2201E+03  0.2243E+05  0.2251E+05  0.2304E+01  0.1965E+00  0.0000E+00  0.0000E+00  0.6640E+07  0.6623E+07  0.0000E+00  0.0000E+00  0.0000E+00  0.0000E+00  0.0000E+00  0.0000E+00  0.0000E+00  0.0000E+00  0.0000E+00  0.0000E+00  0.0000E+00  0.0000E+00  0.0000E+00  0.0000E+00  0.0000E+00  0.0000E+00  0.0000E+00  0.2655E+07  0.2337E+05  0.0000E+00  0.0000E+00
REACH   13        0  2007  0.9475E+03  0.6371E+01  0.6368E+01  0.2860E-02  0.0000E+00  0.2151E+01  0.2151E+01  0.1095E-01  0.5037E+02  0.4983E+02  0.2740E+03  0.2696E+03  0.1459E+07  0.1458E+07  0.2822E+03  0.2923E+03  0.3678E+02  0.4026E+02  0.6224E+04  0.6226E+04  0.2872E+00  0.2056E+00  0.0000E+00  0.0000E+00  0.2170E+07  0.2169E+07  0.0000E+00  0.0000E+00  0.0000E+00  0.0000E+00  0.0000E+00  0.0000E+00  0.0000E+00  0.0000E+00  0.0000E+00  0.0000E+00  0.0000E+00  0.0000E+00  0.0000E+00  0.0000E+00  0.0000E+00  0.0000E+00  0.0000E+00  0.1459E+07  0.6496E+04  0.0000E+00  0.0000E+00
REACH   14        0  2007  0.1446E+04  0.1193E+02  0.1193E+02  0.4898E-02  0.0000E+00  0.3151E+01  0.3151E+01  0.9597E-02  0.5180E+02  0.5118E+02  0.7021E+03  0.6856E+03  0.1170E+07  0.1170E+07  0.6102E+03  0.6194E+03  0.8621E+02  0.9690E+02  0.1480E+05  0.1481E+05  0.2621E+01  0.1994E+01  0.0000E+00  0.0000E+00  0.4105E+07  0.4102E+07  0.0000E+00  0.0000E+00  0.0000E+00  0.0000E+00  0.0000E+00  0.0000E+00  0.0000E+00  0.0000E+00  0.0000E+00  0.0000E+00  0.0000E+00  0.0000E+00  0.0000E+00  0.0000E+00  0.0000E+00  0.0000E+00  0.0000E+00  0.1171E+07  0.1549E+05  0.0000E+00  0.0000E+00
REACH   15        0  2007  0.9467E+03  0.6379E+01  0.6360E+01  0.1868E-01  0.0000E+00  0.2118E+01  0.2118E+01  0.1080E-01  0.4539E+02  0.4764E+02  0.3136E+03  0.2737E+03  0.1462E+07  0.1459E+07  0.2133E+03  0.2822E+03  0.1235E+02  0.3678E+02  0.6178E+04  0.6203E+04  0.1393E+02  0.3214E-01  0.0000E+00  0.0000E+00  0.2146E+07  0.2166E+07  0.0000E+00  0.0000E+00  0.0000E+00  0.0000E+00  0.0000E+00  0.0000E+00  0.0000E+00  0.0000E+00  0.0000E+00  0.0000E+00  0.0000E+00  0.0000E+00  0.0000E+00  0.0000E+00  0.0000E+00  0.0000E+00  0.0000E+00  0.1459E+07  0.6477E+04  0.0000E+00  0.0000E+00
REACH   16        0  2007  0.1114E+03  0.1348E+01  0.1342E+01  0.6357E-02  0.0000E+00  0.5885E-05  0.0000E+00  0.0000E+00  0.2928E-02  0.0000E+00  0.2848E+02  0.2565E+02  0.1393E+06  0.1387E+06  0.0000E+00  0.3321E+02  0.0000E+00  0.0000E+00  0.1270E+04  0.1270E+04  0.5909E+01  0.0000E+00  0.0000E+00  0.0000E+00  0.4688E+06  0.4615E+06  0.0000E+00  0.0000E+00  0.0000E+00  0.0000E+00  0.0000E+00  0.0000E+00  0.0000E+00  0.0000E+00  0.0000E+00  0.0000E+00  0.0000E+00  0.0000E+00  0.0000E+00  0.0000E+00  0.0000E+00  0.0000E+00  0.0000E+00  0.1387E+06  0.1295E+04  0.0000E+00  0.0000E+00
REACH   17        0  2007  0.6721E+03  0.3868E+01  0.3855E+01  0.1299E-01  0.0000E+00  0.1527E+01  0.1527E+01  0.1257E-01  0.1842E+02  0.2764E+02  0.1978E+03  0.1840E+03  0.1008E+07  0.1005E+07  0.1296E+03  0.1801E+03  0.0000E+00  0.1235E+02  0.3752E+04  0.3757E+04  0.4638E+02  0.5091E+00  0.0000E+00  0.0000E+00  0.1297E+07  0.1303E+07  0.0000E+00  0.0000E+00  0.0000E+00  0.0000E+00  0.0000E+00  0.0000E+00  0.0000E+00  0.0000E+00  0.0000E+00  0.0000E+00  0.0000E+00  0.0000E+00  0.0000E+00  0.0000E+00  0.0000E+00  0.0000E+00  0.0000E+00  0.1006E+07  0.3941E+04  0.0000E+00  0.0000E+00
REACH   18        0  2007  0.1970E+03  0.6540E+00  0.6442E+00  0.9744E-02  0.0000E+00  0.5017E-05  0.0000E+00  0.0000E+00  0.5583E-02  0.1188E-03  0.1201E+03  0.9771E+02  0.2247E+06  0.2227E+06  0.0000E+00  0.4673E+02  0.0000E+00  0.0000E+00  0.6726E+03  0.6843E+03  0.4529E-03  0.0000E+00  0.0000E+00  0.0000E+00  0.2212E+06  0.2186E+06  0.0000E+00  0.0000E+00  0.0000E+00  0.0000E+00  0.0000E+00  0.0000E+00  0.0000E+10  0.0000E+00  0.0000E+00  0.0000E+00  0.0000E+00  0.0000E+00  0.0000E+00  0.0000E+00  0.0000E+00  0.0000E+00  0.0000E+00  0.2228E+06  0.7820E+03  0.0000E+00  0.0000E+00
REACH   19        0  2007  0.7697E+02  0.6181E+00  0.6163E+00  0.1791E-02  0.0000E+00  0.4698E-05  0.0000E+00  0.0000E+00  0.2300E-02  0.0000E+00  0.6899E-02  0.1565E-03  0.2747E+05  0.2740E+05  0.0000E+00  0.8688E+01  0.0000E+00  0.0000E+00  0.3771E+03  0.3769E+03  0.2892E-14  0.0000E+00  0.0000E+00  0.0000E+00  0.2159E+06  0.2151E+06  0.0000E+00  0.0000E+00  0.0000E+00  0.0000E+00  0.0000E+00  0.0000E+00  0.0000E+00  0.0000E+00  0.0000E+00  0.0000E+00  0.0000E+00  0.0000E+00  0.0000E+00  0.0000E+00  0.0000E+00  0.0000E+00  0.0000E+00  0.2741E+05  0.3769E+03  0.0000E+00  0.0000E+00
REACH   20        0  2007  0.1285E+03  0.1074E+01  0.1066E+01  0.8797E-02  0.0000E+00  0.8008E+00  0.8008E+00  0.2689E-01  0.1163E+02  0.1279E+02  0.4048E+02  0.3471E+02  0.1166E+06  0.1158E+06  0.0000E+00  0.4247E+02  0.0000E+00  0.0000E+00  0.1641E+04  0.1635E+04  0.5201E+01  0.0000E+00  0.0000E+00  0.0000E+00  0.3455E+06  0.3679E+06  0.0000E+00  0.0000E+00  0.0000E+00  0.0000E+00  0.0000E+00  0.0000E+00  0.0000E+00  0.0000E+00  0.0000E+00  0.0000E+00  0.0000E+00  0.0000E+00  0.0000E+00  0.0000E+00  0.0000E+00  0.0000E+00  0.0000E+00  0.1158E+06  0.1669E+04  0.0000E+00  0.0000E+00
REACH   21        0  2007  0.3004E+03  0.2406E+01  0.2390E+01  0.1627E-01  0.0000E+00  0.4031E-05  0.0000E+00  0.0000E+00  0.5935E-02  0.0000E+00  0.1736E+02  0.1507E+02  0.1602E+06  0.1594E+06  0.0000E+00  0.8288E+02  0.0000E+00  0.0000E+00  0.2020E+04  0.2017E+04  0.1673E-02  0.0000E+00  0.0000E+00  0.0000E+00  0.7504E+06  0.8041E+06  0.0000E+00  0.0000E+00  0.0000E+00  0.0000E+00  0.0000E+00  0.0000E+00  0.0000E+00  0.0000E+00  0.0000E+00  0.0000E+00  0.0000E+00  0.0000E+00  0.0000E+00  0.0000E+00  0.0000E+00  0.0000E+00  0.0000E+00  0.1595E+06  0.2032E+04  0.0000E+00  0.0000E+00
REACH   22        0  2007  0.1411E+04  0.1153E+02  0.1150E+02  0.3332E-01  0.0000E+00  0.2642E+01  0.2642E+01  0.8376E-02  0.4285E+02  0.3954E+02  0.6787E+03  0.6006E+03  0.1164E+07  0.1161E+07  0.5012E+03  0.6102E+03  0.2918E+02  0.8621E+02  0.1407E+05  0.1411E+05  0.3389E+00  0.5706E-02  0.0000E+00  0.0000E+00  0.3968E+07  0.3955E+07  0.0000E+00  0.0000E+00  0.0000E+00  0.0000E+00  0.0000E+00  0.0000E+00  0.0000E+00  0.0000E+00  0.0000E+00  0.0000E+00  0.0000E+00  0.0000E+00  0.0000E+00  0.0000E+00  0.0000E+00  0.0000E+00  0.0000E+00  0.1162E+07  0.1471E+05  0.0000E+00  0.0000E+00
REACH   23        0  2007  0.5426E+03  0.3677E+01  0.3676E+01  0.1018E-02  0.0000E+00  0.1073E-05  0.0000E+00  0.0000E+00  0.1099E-04  0.0000E+00  0.2690E+03  0.2676E+03  0.4008E+06  0.4007E+06  0.2284E+03  0.2324E+03  0.0000E+00  0.1371E+01  0.3575E+04  0.3576E+04  0.2005E-17  0.0000E+00  0.0000E+00  0.0000E+00  0.1256E+07  0.1255E+07  0.0000E+00  0.0000E+00  0.0000E+00  0.0000E+00  0.0000E+00  0.0000E+00  0.0000E+00  0.0000E+00  0.0000E+00  0.0000E+00  0.0000E+00  0.0000E+00  0.0000E+00  0.0000E+00  0.0000E+00  0.0000E+00  0.0000E+00  0.4010E+06  0.3843E+04  0.0000E+00  0.0000E+00
REACH   24        0  2007  0.3078E+03  0.2479E+01  0.2475E+01  0.4710E-02  0.0000E+00  0.1193E+01  0.1193E+01  0.1878E-01  0.2457E+02  0.2435E+02  0.8788E+02  0.8396E+02  0.1853E+06  0.1850E+06  0.5116E+02  0.7154E+02  0.0000E+00  0.2757E+01  0.3523E+04  0.3521E+04  0.3661E+01  0.7374E+00  0.0000E+00  0.0000E+00  0.8507E+06  0.8599E+06  0.0000E+00  0.0000E+00  0.0000E+00  0.0000E+00  0.0000E+00  0.0000E+00  0.0000E+00  0.0000E+00  0.0000E+00  0.0000E+00  0.0000E+00  0.0000E+00  0.0000E+00  0.0000E+00  0.0000E+00  0.0000E+00  0.0000E+00  0.1851E+06  0.3605E+04  0.0000E+00  0.0000E+00
REACH   25        0  2007  0.5423E+03  0.3719E+01  0.3673E+01  0.4567E-01  0.0000E+00  0.3818E-05  0.0000E+00  0.0000E+00  0.1091E-01  0.0000E+00  0.3723E+03  0.2690E+03  0.4043E+06  0.4007E+06  0.0000E+00  0.2284E+03  0.0000E+00  0.0000E+00  0.3507E+04  0.3570E+04  0.3334E-12  0.0000E+00  0.0000E+00  0.0000E+00  0.1187E+07  0.1254E+07  0.0000E+00  0.0000E+00  0.0000E+00  0.0000E+00  0.0000E+00  0.0000E+00  0.0000E+00  0.0000E+00  0.0000E+00  0.0000E+00  0.0000E+00  0.0000E+00  0.0000E+00  0.0000E+00  0.0000E+00  0.0000E+00  0.0000E+00  0.4010E+06  0.3839E+04  0.0000E+00  0.0000E+00
REACH   26        0  2007  0.3126E+03  0.2534E+01  0.2533E+01  0.6819E-03  0.0000E+00  0.1193E+01  0.1193E+01  0.1836E-01  0.2435E+02  0.2406E+02  0.8397E+02  0.8232E+02  0.1856E+06  0.1856E+06  0.7154E+02  0.7363E+02  0.2757E+01  0.4301E+01  0.3592E+04  0.3592E+04  0.7374E+00  0.6641E+00  0.0000E+00  0.0000E+00  0.8807E+06  0.8803E+06  0.0000E+00  0.0000E+00  0.0000E+00  0.0000E+00  0.0000E+00  0.0000E+00  0.0000E+00  0.0000E+00  0.0000E+00  0.0000E+00  0.0000E+00  0.0000E+00  0.0000E+00  0.0000E+00  0.0000E+00  0.0000E+00  0.0000E+00  0.1857E+06  0.3675E+04  0.0000E+00  0.0000E+00
REACH   27        0  2007  0.7880E+03  0.6872E+01  0.6863E+01  0.9428E-02  0.0000E+00  0.2642E+01  0.2642E+01  0.1404E-01  0.4433E+02  0.4284E+02  0.2989E+03  0.2834E+03  0.7356E+06  0.7348E+06  0.2323E+03  0.2689E+03  0.1602E+02  0.2781E+02  0.9138E+04  0.9142E+04  0.6641E+00  0.3389E+00  0.0000E+00  0.0000E+00  0.2373E+07  0.2369E+07  0.0000E+00  0.0000E+00  0.0000E+00  0.0000E+00  0.0000E+00  0.0000E+00  0.0000E+00  0.0000E+00  0.0000E+00  0.0000E+00  0.0000E+00  0.0000E+00  0.0000E+00  0.0000E+00  0.0000E+00  0.0000E+00  0.0000E+00  0.7351E+06  0.9426E+04  0.0000E+00  0.0000E+00
REACH   28        0  2007  0.4560E+03  0.4114E+01  0.4093E+01  0.2058E-01  0.0000E+00  0.1449E+01  0.1449E+01  0.1251E-01  0.2246E+02  0.2027E+02  0.2528E+03  0.2165E+03  0.5469E+06  0.5449E+06  0.6890E+02  0.1587E+03  0.0000E+00  0.1172E+02  0.5241E+04  0.5253E+04  0.4769E-15  0.0000E+00  0.0000E+00  0.0000E+00  0.1414E+07  0.1407E+07  0.0000E+00  0.0000E+00  0.0000E+00  0.0000E+00  0.0000E+00  0.0000E+00  0.0000E+00  0.0000E+00  0.0000E+00  0.0000E+00  0.0000E+00  0.0000E+00  0.0000E+00  0.0000E+00  0.0000E+00  0.0000E+00  0.0000E+00  0.5451E+06  0.5469E+04  0.0000E+00  0.0000E+00
REACH   29        0  2007  0.3475E+03  0.2841E+01  0.2828E+01  0.1276E-01  0.0000E+00  0.1449E+01  0.1449E+01  0.1650E-01  0.1955E+02  0.2246E+02  0.1941E+03  0.1725E+03  0.5321E+06  0.5304E+06  0.0000E+00  0.6890E+02  0.0000E+00  0.0000E+00  0.3597E+04  0.3604E+04  0.1262E+02  0.0000E+00  0.0000E+00  0.0000E+00  0.9729E+06  0.9651E+06  0.0000E+00  0.0000E+00  0.0000E+00  0.0000E+00  0.0000E+00  0.0000E+00  0.0000E+00  0.0000E+00  0.0000E+00  0.0000E+00  0.0000E+00  0.0000E+00  0.0000E+00  0.0000E+00  0.0000E+00  0.0000E+00  0.0000E+00  0.5305E+06  0.3777E+04  0.0000E+00  0.0000E+00
REACH    1        0  2008  0.3041E+04  0.1792E+02  0.1792E+02  0.7643E-02  0.0000E+00  0.4710E+01  0.4710E+01  0.1132E-01  0.1021E+03  0.1004E+03  0.7335E+03  0.7089E+03  0.1689E+07  0.1688E+07  0.9440E+03  0.9437E+03  0.3039E+03  0.3071E+03  0.2320E+05  0.2321E+05  0.3988E+01  0.2279E+01  0.0000E+00  0.0000E+00  0.6351E+07  0.6348E+07  0.0000E+00  0.0000E+00  0.0000E+00  0.0000E+00  0.0000E+00  0.0000E+00  0.0000E+00  0.0000E+00  0.0000E+00  0.0000E+00  0.0000E+00  0.0000E+00  0.0000E+00  0.0000E+00  0.0000E+00  0.0000E+00  0.0000E+00  0.1690E+07  0.2392E+05  0.0000E+00  0.0000E+00
REACH    2        0  2008  0.1005E+03  0.4977E+00  0.4972E+00  0.4514E-03  0.0000E+00  0.2288E+00  0.2288E+00  0.2266E-01  0.1023E+02  0.1015E+02  0.3659E+02  0.3604E+02  0.1219E+06  0.1219E+06  0.1607E+02  0.1798E+02  0.0000E+00  0.2820E+00  0.8963E+03  0.8959E+03  0.2223E+00  0.4121E-01  0.0000E+00  0.0000E+00  0.1782E+06  0.1780E+06  0.0000E+00  0.0000E+00  0.0000E+00  0.0000E+00  0.0000E+00  0.0000E+00  0.0000E+00  0.0000E+00  0.0000E+00  0.0000E+00  0.0000E+00  0.0000E+00  0.0000E+00  0.0000E+00  0.0000E+00  0.0000E+00  0.0000E+00  0.1219E+06  0.9319E+03  0.0000E+00  0.0000E+00